/*---------------------------------------------------------------------------*\
| =========                 |                                                 |
| \\      /  F ield         | OpenFOAM: The Open Source CFD Toolbox           |
|  \\    /   O peration     | Version:  2412                                  |
|   \\  /    A nd           | Website:  www.openfoam.com                      |
|    \\/     M anipulation  |                                                 |
\*---------------------------------------------------------------------------*/
Build  : _8dbc61e11c-20241220 OPENFOAM=2412 version=v2412
Arch   : "LSB;label=32;scalar=64"
Exec   : multiRegionElectrostaticFoam
Date   : May 15 2026
Time   : 17:27:20
Host   : rpasolari
PID    : 110180
I/O    : uncollated
Case   : /home/rpasolari-wsl/Linux-Desktop/CERTH/solvers/OpenFOAM/OF2412/foamPlasmaToolkit/tutorials/electrostatics/multiRegionElectrostaticFoam/plate2D_timeVaryingBC_implicitBoundary
nProcs : 1
trapFpe: Floating point exception trapping enabled (FOAM_SIGFPE).
fileModificationChecking : Monitoring run-time modified files using timeStampMaster (fileModificationSkew 5, maxFileModificationPolls 20)
allowSystemOperations : Allowing user-supplied system call operations

// * * * * * * * * * * * * * * * * * * * * * * * * * * * * * * * * * * * * * //
Create time

Create gas mesh for region leftGas for time = 0

Create dielectric mesh for region rightDielectric for time = 0

Regions are NOT coupled; ePotential will be solved in SEGREGATED way


Calculating electric potential distribution

Time = 1

Solving for ePotential in non-coupled regions (segregated)
  -ePotential iteration (1/100)
    -Solving for ePotential (gas region: leftGas)
GAMG:  Solving for ePotential, Initial residual = 1, Final residual = 1.27968e-11, No Iterations 1
    -Solving for ePotential (dielectric: rightDielectric)
GAMG:  Solving for ePotential, Initial residual = 0, Final residual = 0, No Iterations 0
  -ePotential iteration (2/100)
    -Solving for ePotential (gas region: leftGas)
GAMG:  Solving for ePotential, Initial residual = 0.00223227, Final residual = 8.82762e-08, No Iterations 2000
    -Solving for ePotential (dielectric: rightDielectric)
GAMG:  Solving for ePotential, Initial residual = 0, Final residual = 0, No Iterations 0
  -ePotential iteration (3/100)
    -Solving for ePotential (gas region: leftGas)
GAMG:  Solving for ePotential, Initial residual = 8.96146e-08, Final residual = 9.71876e-08, No Iterations 2000
    -Solving for ePotential (dielectric: rightDielectric)
GAMG:  Solving for ePotential, Initial residual = 0, Final residual = 0, No Iterations 0
>>> ePotential converged in 3 iterations.
ExecutionTime = 0.02 s  ClockTime = 0 s

Time = 2

Solving for ePotential in non-coupled regions (segregated)
  -ePotential iteration (1/100)
    -Solving for ePotential (gas region: leftGas)
GAMG:  Solving for ePotential, Initial residual = 1, Final residual = 1.27967e-11, No Iterations 1
    -Solving for ePotential (dielectric: rightDielectric)
GAMG:  Solving for ePotential, Initial residual = 0, Final residual = 0, No Iterations 0
  -ePotential iteration (2/100)
    -Solving for ePotential (gas region: leftGas)
GAMG:  Solving for ePotential, Initial residual = 0.00223224, Final residual = 1.61632e-07, No Iterations 2000
    -Solving for ePotential (dielectric: rightDielectric)
GAMG:  Solving for ePotential, Initial residual = 0, Final residual = 0, No Iterations 0
  -ePotential iteration (3/100)
    -Solving for ePotential (gas region: leftGas)
GAMG:  Solving for ePotential, Initial residual = 1.64083e-07, Final residual = 1.64083e-07, No Iterations 2000
    -Solving for ePotential (dielectric: rightDielectric)
GAMG:  Solving for ePotential, Initial residual = 0, Final residual = 0, No Iterations 0
>>> ePotential converged in 3 iterations.
ExecutionTime = 0.02 s  ClockTime = 0 s

Time = 3

Solving for ePotential in non-coupled regions (segregated)
  -ePotential iteration (1/100)
    -Solving for ePotential (gas region: leftGas)
GAMG:  Solving for ePotential, Initial residual = 1, Final residual = 1.2797e-11, No Iterations 1
    -Solving for ePotential (dielectric: rightDielectric)
GAMG:  Solving for ePotential, Initial residual = 0, Final residual = 0, No Iterations 0
  -ePotential iteration (2/100)
    -Solving for ePotential (gas region: leftGas)
GAMG:  Solving for ePotential, Initial residual = 0.0022323, Final residual = 3.48131e-07, No Iterations 2000
    -Solving for ePotential (dielectric: rightDielectric)
GAMG:  Solving for ePotential, Initial residual = 0, Final residual = 0, No Iterations 0
  -ePotential iteration (3/100)
    -Solving for ePotential (gas region: leftGas)
GAMG:  Solving for ePotential, Initial residual = 3.53409e-07, Final residual = 3.53409e-07, No Iterations 2000
    -Solving for ePotential (dielectric: rightDielectric)
GAMG:  Solving for ePotential, Initial residual = 0, Final residual = 0, No Iterations 0
>>> ePotential converged in 3 iterations.
ExecutionTime = 0.03 s  ClockTime = 0 s

Time = 4

Solving for ePotential in non-coupled regions (segregated)
  -ePotential iteration (1/100)
    -Solving for ePotential (gas region: leftGas)
GAMG:  Solving for ePotential, Initial residual = 1, Final residual = 1.27964e-11, No Iterations 1
    -Solving for ePotential (dielectric: rightDielectric)
GAMG:  Solving for ePotential, Initial residual = 0, Final residual = 0, No Iterations 0
  -ePotential iteration (2/100)
    -Solving for ePotential (gas region: leftGas)
GAMG:  Solving for ePotential, Initial residual = 0.00223218, Final residual = 3.63051e-07, No Iterations 2000
    -Solving for ePotential (dielectric: rightDielectric)
GAMG:  Solving for ePotential, Initial residual = 0, Final residual = 0, No Iterations 0
  -ePotential iteration (3/100)
    -Solving for ePotential (gas region: leftGas)
GAMG:  Solving for ePotential, Initial residual = 3.68555e-07, Final residual = 3.68555e-07, No Iterations 2000
    -Solving for ePotential (dielectric: rightDielectric)
GAMG:  Solving for ePotential, Initial residual = 0, Final residual = 0, No Iterations 0
>>> ePotential converged in 3 iterations.
ExecutionTime = 0.04 s  ClockTime = 0 s

Time = 5

Solving for ePotential in non-coupled regions (segregated)
  -ePotential iteration (1/100)
    -Solving for ePotential (gas region: leftGas)
GAMG:  Solving for ePotential, Initial residual = 1, Final residual = 1.27972e-11, No Iterations 1
    -Solving for ePotential (dielectric: rightDielectric)
GAMG:  Solving for ePotential, Initial residual = 0, Final residual = 0, No Iterations 0
  -ePotential iteration (2/100)
    -Solving for ePotential (gas region: leftGas)
GAMG:  Solving for ePotential, Initial residual = 0.00223233, Final residual = 5.86849e-07, No Iterations 2000
    -Solving for ePotential (dielectric: rightDielectric)
GAMG:  Solving for ePotential, Initial residual = 0, Final residual = 0, No Iterations 0
  -ePotential iteration (3/100)
    -Solving for ePotential (gas region: leftGas)
GAMG:  Solving for ePotential, Initial residual = 5.95747e-07, Final residual = 5.95747e-07, No Iterations 2000
    -Solving for ePotential (dielectric: rightDielectric)
GAMG:  Solving for ePotential, Initial residual = 0, Final residual = 0, No Iterations 0
>>> ePotential converged in 3 iterations.
ExecutionTime = 0.05 s  ClockTime = 0 s

Time = 6

Solving for ePotential in non-coupled regions (segregated)
  -ePotential iteration (1/100)
    -Solving for ePotential (gas region: leftGas)
GAMG:  Solving for ePotential, Initial residual = 1, Final residual = 1.27963e-11, No Iterations 1
    -Solving for ePotential (dielectric: rightDielectric)
GAMG:  Solving for ePotential, Initial residual = 0, Final residual = 0, No Iterations 0
  -ePotential iteration (2/100)
    -Solving for ePotential (gas region: leftGas)
GAMG:  Solving for ePotential, Initial residual = 0.00223217, Final residual = 6.86316e-07, No Iterations 2000
    -Solving for ePotential (dielectric: rightDielectric)
GAMG:  Solving for ePotential, Initial residual = 0, Final residual = 0, No Iterations 0
  -ePotential iteration (3/100)
    -Solving for ePotential (gas region: leftGas)
GAMG:  Solving for ePotential, Initial residual = 6.96721e-07, Final residual = 6.96721e-07, No Iterations 2000
    -Solving for ePotential (dielectric: rightDielectric)
GAMG:  Solving for ePotential, Initial residual = 0, Final residual = 0, No Iterations 0
>>> ePotential converged in 3 iterations.
ExecutionTime = 0.05 s  ClockTime = 0 s

Time = 7

Solving for ePotential in non-coupled regions (segregated)
  -ePotential iteration (1/100)
    -Solving for ePotential (gas region: leftGas)
GAMG:  Solving for ePotential, Initial residual = 1, Final residual = 1.27969e-11, No Iterations 1
    -Solving for ePotential (dielectric: rightDielectric)
GAMG:  Solving for ePotential, Initial residual = 0, Final residual = 0, No Iterations 0
  -ePotential iteration (2/100)
    -Solving for ePotential (gas region: leftGas)
GAMG:  Solving for ePotential, Initial residual = 0.00223228, Final residual = 7.55942e-07, No Iterations 2000
    -Solving for ePotential (dielectric: rightDielectric)
GAMG:  Solving for ePotential, Initial residual = 0, Final residual = 0, No Iterations 0
  -ePotential iteration (3/100)
    -Solving for ePotential (gas region: leftGas)
GAMG:  Solving for ePotential, Initial residual = 7.67402e-07, Final residual = 7.67402e-07, No Iterations 2000
    -Solving for ePotential (dielectric: rightDielectric)
GAMG:  Solving for ePotential, Initial residual = 0, Final residual = 0, No Iterations 0
>>> ePotential converged in 3 iterations.
ExecutionTime = 0.06 s  ClockTime = 0 s

Time = 8

Solving for ePotential in non-coupled regions (segregated)
  -ePotential iteration (1/100)
    -Solving for ePotential (gas region: leftGas)
GAMG:  Solving for ePotential, Initial residual = 1, Final residual = 1.27961e-11, No Iterations 1
    -Solving for ePotential (dielectric: rightDielectric)
GAMG:  Solving for ePotential, Initial residual = 0, Final residual = 0, No Iterations 0
  -ePotential iteration (2/100)
    -Solving for ePotential (gas region: leftGas)
GAMG:  Solving for ePotential, Initial residual = 0.00223213, Final residual = 6.46528e-07, No Iterations 2000
    -Solving for ePotential (dielectric: rightDielectric)
GAMG:  Solving for ePotential, Initial residual = 0, Final residual = 0, No Iterations 0
  -ePotential iteration (3/100)
    -Solving for ePotential (gas region: leftGas)
GAMG:  Solving for ePotential, Initial residual = 6.5633e-07, Final residual = 6.5633e-07, No Iterations 2000
    -Solving for ePotential (dielectric: rightDielectric)
GAMG:  Solving for ePotential, Initial residual = 0, Final residual = 0, No Iterations 0
>>> ePotential converged in 3 iterations.
ExecutionTime = 0.07 s  ClockTime = 0 s

Time = 9

Solving for ePotential in non-coupled regions (segregated)
  -ePotential iteration (1/100)
    -Solving for ePotential (gas region: leftGas)
GAMG:  Solving for ePotential, Initial residual = 1, Final residual = 1.27972e-11, No Iterations 1
    -Solving for ePotential (dielectric: rightDielectric)
GAMG:  Solving for ePotential, Initial residual = 0, Final residual = 0, No Iterations 0
  -ePotential iteration (2/100)
    -Solving for ePotential (gas region: leftGas)
GAMG:  Solving for ePotential, Initial residual = 0.00223232, Final residual = 7.95728e-07, No Iterations 2000
    -Solving for ePotential (dielectric: rightDielectric)
GAMG:  Solving for ePotential, Initial residual = 0, Final residual = 0, No Iterations 0
  -ePotential iteration (3/100)
    -Solving for ePotential (gas region: leftGas)
GAMG:  Solving for ePotential, Initial residual = 8.0779e-07, Final residual = 8.0779e-07, No Iterations 2000
    -Solving for ePotential (dielectric: rightDielectric)
GAMG:  Solving for ePotential, Initial residual = 0, Final residual = 0, No Iterations 0
>>> ePotential converged in 3 iterations.
ExecutionTime = 0.08 s  ClockTime = 0 s

Time = 10

Solving for ePotential in non-coupled regions (segregated)
  -ePotential iteration (1/100)
    -Solving for ePotential (gas region: leftGas)
GAMG:  Solving for ePotential, Initial residual = 1, Final residual = 1.27951e-11, No Iterations 1
    -Solving for ePotential (dielectric: rightDielectric)
GAMG:  Solving for ePotential, Initial residual = 0, Final residual = 0, No Iterations 0
  -ePotential iteration (2/100)
    -Solving for ePotential (gas region: leftGas)
GAMG:  Solving for ePotential, Initial residual = 0.00223196, Final residual = 1.19359e-06, No Iterations 2000
    -Solving for ePotential (dielectric: rightDielectric)
GAMG:  Solving for ePotential, Initial residual = 0, Final residual = 0, No Iterations 0
  -ePotential iteration (3/100)
    -Solving for ePotential (gas region: leftGas)
GAMG:  Solving for ePotential, Initial residual = 1.21169e-06, Final residual = 1.21169e-06, No Iterations 2000
    -Solving for ePotential (dielectric: rightDielectric)
GAMG:  Solving for ePotential, Initial residual = 0, Final residual = 0, No Iterations 0
  -ePotential iteration (4/100)
    -Solving for ePotential (gas region: leftGas)
GAMG:  Solving for ePotential, Initial residual = 1.21169e-06, Final residual = 1.21169e-06, No Iterations 2000
    -Solving for ePotential (dielectric: rightDielectric)
GAMG:  Solving for ePotential, Initial residual = 0, Final residual = 0, No Iterations 0
  -ePotential iteration (5/100)
    -Solving for ePotential (gas region: leftGas)
GAMG:  Solving for ePotential, Initial residual = 1.21169e-06, Final residual = 1.21169e-06, No Iterations 2000
    -Solving for ePotential (dielectric: rightDielectric)
GAMG:  Solving for ePotential, Initial residual = 0, Final residual = 0, No Iterations 0
  -ePotential iteration (6/100)
    -Solving for ePotential (gas region: leftGas)
GAMG:  Solving for ePotential, Initial residual = 1.21169e-06, Final residual = 1.21169e-06, No Iterations 2000
    -Solving for ePotential (dielectric: rightDielectric)
GAMG:  Solving for ePotential, Initial residual = 0, Final residual = 0, No Iterations 0
  -ePotential iteration (7/100)
    -Solving for ePotential (gas region: leftGas)
GAMG:  Solving for ePotential, Initial residual = 1.21169e-06, Final residual = 1.21169e-06, No Iterations 2000
    -Solving for ePotential (dielectric: rightDielectric)
GAMG:  Solving for ePotential, Initial residual = 0, Final residual = 0, No Iterations 0
  -ePotential iteration (8/100)
    -Solving for ePotential (gas region: leftGas)
GAMG:  Solving for ePotential, Initial residual = 1.21169e-06, Final residual = 1.21169e-06, No Iterations 2000
    -Solving for ePotential (dielectric: rightDielectric)
GAMG:  Solving for ePotential, Initial residual = 0, Final residual = 0, No Iterations 0
  -ePotential iteration (9/100)
    -Solving for ePotential (gas region: leftGas)
GAMG:  Solving for ePotential, Initial residual = 1.21169e-06, Final residual = 1.21169e-06, No Iterations 2000
    -Solving for ePotential (dielectric: rightDielectric)
GAMG:  Solving for ePotential, Initial residual = 0, Final residual = 0, No Iterations 0
  -ePotential iteration (10/100)
    -Solving for ePotential (gas region: leftGas)
GAMG:  Solving for ePotential, Initial residual = 1.21169e-06, Final residual = 1.21169e-06, No Iterations 2000
    -Solving for ePotential (dielectric: rightDielectric)
GAMG:  Solving for ePotential, Initial residual = 0, Final residual = 0, No Iterations 0
  -ePotential iteration (11/100)
    -Solving for ePotential (gas region: leftGas)
GAMG:  Solving for ePotential, Initial residual = 1.21169e-06, Final residual = 1.21169e-06, No Iterations 2000
    -Solving for ePotential (dielectric: rightDielectric)
GAMG:  Solving for ePotential, Initial residual = 0, Final residual = 0, No Iterations 0
  -ePotential iteration (12/100)
    -Solving for ePotential (gas region: leftGas)
GAMG:  Solving for ePotential, Initial residual = 1.21169e-06, Final residual = 1.21169e-06, No Iterations 2000
    -Solving for ePotential (dielectric: rightDielectric)
GAMG:  Solving for ePotential, Initial residual = 0, Final residual = 0, No Iterations 0
  -ePotential iteration (13/100)
    -Solving for ePotential (gas region: leftGas)
GAMG:  Solving for ePotential, Initial residual = 1.21169e-06, Final residual = 1.21169e-06, No Iterations 2000
    -Solving for ePotential (dielectric: rightDielectric)
GAMG:  Solving for ePotential, Initial residual = 0, Final residual = 0, No Iterations 0
  -ePotential iteration (14/100)
    -Solving for ePotential (gas region: leftGas)
GAMG:  Solving for ePotential, Initial residual = 1.21169e-06, Final residual = 1.21169e-06, No Iterations 2000
    -Solving for ePotential (dielectric: rightDielectric)
GAMG:  Solving for ePotential, Initial residual = 0, Final residual = 0, No Iterations 0
  -ePotential iteration (15/100)
    -Solving for ePotential (gas region: leftGas)
GAMG:  Solving for ePotential, Initial residual = 1.21169e-06, Final residual = 1.21169e-06, No Iterations 2000
    -Solving for ePotential (dielectric: rightDielectric)
GAMG:  Solving for ePotential, Initial residual = 0, Final residual = 0, No Iterations 0
  -ePotential iteration (16/100)
    -Solving for ePotential (gas region: leftGas)
GAMG:  Solving for ePotential, Initial residual = 1.21169e-06, Final residual = 1.21169e-06, No Iterations 2000
    -Solving for ePotential (dielectric: rightDielectric)
GAMG:  Solving for ePotential, Initial residual = 0, Final residual = 0, No Iterations 0
  -ePotential iteration (17/100)
    -Solving for ePotential (gas region: leftGas)
GAMG:  Solving for ePotential, Initial residual = 1.21169e-06, Final residual = 1.21169e-06, No Iterations 2000
    -Solving for ePotential (dielectric: rightDielectric)
GAMG:  Solving for ePotential, Initial residual = 0, Final residual = 0, No Iterations 0
  -ePotential iteration (18/100)
    -Solving for ePotential (gas region: leftGas)
GAMG:  Solving for ePotential, Initial residual = 1.21169e-06, Final residual = 1.21169e-06, No Iterations 2000
    -Solving for ePotential (dielectric: rightDielectric)
GAMG:  Solving for ePotential, Initial residual = 0, Final residual = 0, No Iterations 0
  -ePotential iteration (19/100)
    -Solving for ePotential (gas region: leftGas)
GAMG:  Solving for ePotential, Initial residual = 1.21169e-06, Final residual = 1.21169e-06, No Iterations 2000
    -Solving for ePotential (dielectric: rightDielectric)
GAMG:  Solving for ePotential, Initial residual = 0, Final residual = 0, No Iterations 0
  -ePotential iteration (20/100)
    -Solving for ePotential (gas region: leftGas)
GAMG:  Solving for ePotential, Initial residual = 1.21169e-06, Final residual = 1.21169e-06, No Iterations 2000
    -Solving for ePotential (dielectric: rightDielectric)
GAMG:  Solving for ePotential, Initial residual = 0, Final residual = 0, No Iterations 0
  -ePotential iteration (21/100)
    -Solving for ePotential (gas region: leftGas)
GAMG:  Solving for ePotential, Initial residual = 1.21169e-06, Final residual = 1.21169e-06, No Iterations 2000
    -Solving for ePotential (dielectric: rightDielectric)
GAMG:  Solving for ePotential, Initial residual = 0, Final residual = 0, No Iterations 0
  -ePotential iteration (22/100)
    -Solving for ePotential (gas region: leftGas)
GAMG:  Solving for ePotential, Initial residual = 1.21169e-06, Final residual = 1.21169e-06, No Iterations 2000
    -Solving for ePotential (dielectric: rightDielectric)
GAMG:  Solving for ePotential, Initial residual = 0, Final residual = 0, No Iterations 0
  -ePotential iteration (23/100)
    -Solving for ePotential (gas region: leftGas)
GAMG:  Solving for ePotential, Initial residual = 1.21169e-06, Final residual = 1.21169e-06, No Iterations 2000
    -Solving for ePotential (dielectric: rightDielectric)
GAMG:  Solving for ePotential, Initial residual = 0, Final residual = 0, No Iterations 0
  -ePotential iteration (24/100)
    -Solving for ePotential (gas region: leftGas)
GAMG:  Solving for ePotential, Initial residual = 1.21169e-06, Final residual = 1.21169e-06, No Iterations 2000
    -Solving for ePotential (dielectric: rightDielectric)
GAMG:  Solving for ePotential, Initial residual = 0, Final residual = 0, No Iterations 0
  -ePotential iteration (25/100)
    -Solving for ePotential (gas region: leftGas)
GAMG:  Solving for ePotential, Initial residual = 1.21169e-06, Final residual = 1.21169e-06, No Iterations 2000
    -Solving for ePotential (dielectric: rightDielectric)
GAMG:  Solving for ePotential, Initial residual = 0, Final residual = 0, No Iterations 0
  -ePotential iteration (26/100)
    -Solving for ePotential (gas region: leftGas)
GAMG:  Solving for ePotential, Initial residual = 1.21169e-06, Final residual = 1.21169e-06, No Iterations 2000
    -Solving for ePotential (dielectric: rightDielectric)
GAMG:  Solving for ePotential, Initial residual = 0, Final residual = 0, No Iterations 0
  -ePotential iteration (27/100)
    -Solving for ePotential (gas region: leftGas)
GAMG:  Solving for ePotential, Initial residual = 1.21169e-06, Final residual = 1.21169e-06, No Iterations 2000
    -Solving for ePotential (dielectric: rightDielectric)
GAMG:  Solving for ePotential, Initial residual = 0, Final residual = 0, No Iterations 0
  -ePotential iteration (28/100)
    -Solving for ePotential (gas region: leftGas)
GAMG:  Solving for ePotential, Initial residual = 1.21169e-06, Final residual = 1.21169e-06, No Iterations 2000
    -Solving for ePotential (dielectric: rightDielectric)
GAMG:  Solving for ePotential, Initial residual = 0, Final residual = 0, No Iterations 0
  -ePotential iteration (29/100)
    -Solving for ePotential (gas region: leftGas)
GAMG:  Solving for ePotential, Initial residual = 1.21169e-06, Final residual = 1.21169e-06, No Iterations 2000
    -Solving for ePotential (dielectric: rightDielectric)
GAMG:  Solving for ePotential, Initial residual = 0, Final residual = 0, No Iterations 0
  -ePotential iteration (30/100)
    -Solving for ePotential (gas region: leftGas)
GAMG:  Solving for ePotential, Initial residual = 1.21169e-06, Final residual = 1.21169e-06, No Iterations 2000
    -Solving for ePotential (dielectric: rightDielectric)
GAMG:  Solving for ePotential, Initial residual = 0, Final residual = 0, No Iterations 0
  -ePotential iteration (31/100)
    -Solving for ePotential (gas region: leftGas)
GAMG:  Solving for ePotential, Initial residual = 1.21169e-06, Final residual = 1.21169e-06, No Iterations 2000
    -Solving for ePotential (dielectric: rightDielectric)
GAMG:  Solving for ePotential, Initial residual = 0, Final residual = 0, No Iterations 0
  -ePotential iteration (32/100)
    -Solving for ePotential (gas region: leftGas)
GAMG:  Solving for ePotential, Initial residual = 1.21169e-06, Final residual = 1.21169e-06, No Iterations 2000
    -Solving for ePotential (dielectric: rightDielectric)
GAMG:  Solving for ePotential, Initial residual = 0, Final residual = 0, No Iterations 0
  -ePotential iteration (33/100)
    -Solving for ePotential (gas region: leftGas)
GAMG:  Solving for ePotential, Initial residual = 1.21169e-06, Final residual = 1.21169e-06, No Iterations 2000
    -Solving for ePotential (dielectric: rightDielectric)
GAMG:  Solving for ePotential, Initial residual = 0, Final residual = 0, No Iterations 0
  -ePotential iteration (34/100)
    -Solving for ePotential (gas region: leftGas)
GAMG:  Solving for ePotential, Initial residual = 1.21169e-06, Final residual = 1.21169e-06, No Iterations 2000
    -Solving for ePotential (dielectric: rightDielectric)
GAMG:  Solving for ePotential, Initial residual = 0, Final residual = 0, No Iterations 0
  -ePotential iteration (35/100)
    -Solving for ePotential (gas region: leftGas)
GAMG:  Solving for ePotential, Initial residual = 1.21169e-06, Final residual = 1.21169e-06, No Iterations 2000
    -Solving for ePotential (dielectric: rightDielectric)
GAMG:  Solving for ePotential, Initial residual = 0, Final residual = 0, No Iterations 0
  -ePotential iteration (36/100)
    -Solving for ePotential (gas region: leftGas)
GAMG:  Solving for ePotential, Initial residual = 1.21169e-06, Final residual = 1.21169e-06, No Iterations 2000
    -Solving for ePotential (dielectric: rightDielectric)
GAMG:  Solving for ePotential, Initial residual = 0, Final residual = 0, No Iterations 0
  -ePotential iteration (37/100)
    -Solving for ePotential (gas region: leftGas)
GAMG:  Solving for ePotential, Initial residual = 1.21169e-06, Final residual = 1.21169e-06, No Iterations 2000
    -Solving for ePotential (dielectric: rightDielectric)
GAMG:  Solving for ePotential, Initial residual = 0, Final residual = 0, No Iterations 0
  -ePotential iteration (38/100)
    -Solving for ePotential (gas region: leftGas)
GAMG:  Solving for ePotential, Initial residual = 1.21169e-06, Final residual = 1.21169e-06, No Iterations 2000
    -Solving for ePotential (dielectric: rightDielectric)
GAMG:  Solving for ePotential, Initial residual = 0, Final residual = 0, No Iterations 0
  -ePotential iteration (39/100)
    -Solving for ePotential (gas region: leftGas)
GAMG:  Solving for ePotential, Initial residual = 1.21169e-06, Final residual = 1.21169e-06, No Iterations 2000
    -Solving for ePotential (dielectric: rightDielectric)
GAMG:  Solving for ePotential, Initial residual = 0, Final residual = 0, No Iterations 0
  -ePotential iteration (40/100)
    -Solving for ePotential (gas region: leftGas)
GAMG:  Solving for ePotential, Initial residual = 1.21169e-06, Final residual = 1.21169e-06, No Iterations 2000
    -Solving for ePotential (dielectric: rightDielectric)
GAMG:  Solving for ePotential, Initial residual = 0, Final residual = 0, No Iterations 0
  -ePotential iteration (41/100)
    -Solving for ePotential (gas region: leftGas)
GAMG:  Solving for ePotential, Initial residual = 1.21169e-06, Final residual = 1.21169e-06, No Iterations 2000
    -Solving for ePotential (dielectric: rightDielectric)
GAMG:  Solving for ePotential, Initial residual = 0, Final residual = 0, No Iterations 0
  -ePotential iteration (42/100)
    -Solving for ePotential (gas region: leftGas)
GAMG:  Solving for ePotential, Initial residual = 1.21169e-06, Final residual = 1.21169e-06, No Iterations 2000
    -Solving for ePotential (dielectric: rightDielectric)
GAMG:  Solving for ePotential, Initial residual = 0, Final residual = 0, No Iterations 0
  -ePotential iteration (43/100)
    -Solving for ePotential (gas region: leftGas)
GAMG:  Solving for ePotential, Initial residual = 1.21169e-06, Final residual = 1.21169e-06, No Iterations 2000
    -Solving for ePotential (dielectric: rightDielectric)
GAMG:  Solving for ePotential, Initial residual = 0, Final residual = 0, No Iterations 0
  -ePotential iteration (44/100)
    -Solving for ePotential (gas region: leftGas)
GAMG:  Solving for ePotential, Initial residual = 1.21169e-06, Final residual = 1.21169e-06, No Iterations 2000
    -Solving for ePotential (dielectric: rightDielectric)
GAMG:  Solving for ePotential, Initial residual = 0, Final residual = 0, No Iterations 0
  -ePotential iteration (45/100)
    -Solving for ePotential (gas region: leftGas)
GAMG:  Solving for ePotential, Initial residual = 1.21169e-06, Final residual = 1.21169e-06, No Iterations 2000
    -Solving for ePotential (dielectric: rightDielectric)
GAMG:  Solving for ePotential, Initial residual = 0, Final residual = 0, No Iterations 0
  -ePotential iteration (46/100)
    -Solving for ePotential (gas region: leftGas)
GAMG:  Solving for ePotential, Initial residual = 1.21169e-06, Final residual = 1.21169e-06, No Iterations 2000
    -Solving for ePotential (dielectric: rightDielectric)
GAMG:  Solving for ePotential, Initial residual = 0, Final residual = 0, No Iterations 0
  -ePotential iteration (47/100)
    -Solving for ePotential (gas region: leftGas)
GAMG:  Solving for ePotential, Initial residual = 1.21169e-06, Final residual = 1.21169e-06, No Iterations 2000
    -Solving for ePotential (dielectric: rightDielectric)
GAMG:  Solving for ePotential, Initial residual = 0, Final residual = 0, No Iterations 0
  -ePotential iteration (48/100)
    -Solving for ePotential (gas region: leftGas)
GAMG:  Solving for ePotential, Initial residual = 1.21169e-06, Final residual = 1.21169e-06, No Iterations 2000
    -Solving for ePotential (dielectric: rightDielectric)
GAMG:  Solving for ePotential, Initial residual = 0, Final residual = 0, No Iterations 0
  -ePotential iteration (49/100)
    -Solving for ePotential (gas region: leftGas)
GAMG:  Solving for ePotential, Initial residual = 1.21169e-06, Final residual = 1.21169e-06, No Iterations 2000
    -Solving for ePotential (dielectric: rightDielectric)
GAMG:  Solving for ePotential, Initial residual = 0, Final residual = 0, No Iterations 0
  -ePotential iteration (50/100)
    -Solving for ePotential (gas region: leftGas)
GAMG:  Solving for ePotential, Initial residual = 1.21169e-06, Final residual = 1.21169e-06, No Iterations 2000
    -Solving for ePotential (dielectric: rightDielectric)
GAMG:  Solving for ePotential, Initial residual = 0, Final residual = 0, No Iterations 0
  -ePotential iteration (51/100)
    -Solving for ePotential (gas region: leftGas)
GAMG:  Solving for ePotential, Initial residual = 1.21169e-06, Final residual = 1.21169e-06, No Iterations 2000
    -Solving for ePotential (dielectric: rightDielectric)
GAMG:  Solving for ePotential, Initial residual = 0, Final residual = 0, No Iterations 0
  -ePotential iteration (52/100)
    -Solving for ePotential (gas region: leftGas)
GAMG:  Solving for ePotential, Initial residual = 1.21169e-06, Final residual = 1.21169e-06, No Iterations 2000
    -Solving for ePotential (dielectric: rightDielectric)
GAMG:  Solving for ePotential, Initial residual = 0, Final residual = 0, No Iterations 0
  -ePotential iteration (53/100)
    -Solving for ePotential (gas region: leftGas)
GAMG:  Solving for ePotential, Initial residual = 1.21169e-06, Final residual = 1.21169e-06, No Iterations 2000
    -Solving for ePotential (dielectric: rightDielectric)
GAMG:  Solving for ePotential, Initial residual = 0, Final residual = 0, No Iterations 0
  -ePotential iteration (54/100)
    -Solving for ePotential (gas region: leftGas)
GAMG:  Solving for ePotential, Initial residual = 1.21169e-06, Final residual = 1.21169e-06, No Iterations 2000
    -Solving for ePotential (dielectric: rightDielectric)
GAMG:  Solving for ePotential, Initial residual = 0, Final residual = 0, No Iterations 0
  -ePotential iteration (55/100)
    -Solving for ePotential (gas region: leftGas)
GAMG:  Solving for ePotential, Initial residual = 1.21169e-06, Final residual = 1.21169e-06, No Iterations 2000
    -Solving for ePotential (dielectric: rightDielectric)
GAMG:  Solving for ePotential, Initial residual = 0, Final residual = 0, No Iterations 0
  -ePotential iteration (56/100)
    -Solving for ePotential (gas region: leftGas)
GAMG:  Solving for ePotential, Initial residual = 1.21169e-06, Final residual = 1.21169e-06, No Iterations 2000
    -Solving for ePotential (dielectric: rightDielectric)
GAMG:  Solving for ePotential, Initial residual = 0, Final residual = 0, No Iterations 0
  -ePotential iteration (57/100)
    -Solving for ePotential (gas region: leftGas)
GAMG:  Solving for ePotential, Initial residual = 1.21169e-06, Final residual = 1.21169e-06, No Iterations 2000
    -Solving for ePotential (dielectric: rightDielectric)
GAMG:  Solving for ePotential, Initial residual = 0, Final residual = 0, No Iterations 0
  -ePotential iteration (58/100)
    -Solving for ePotential (gas region: leftGas)
GAMG:  Solving for ePotential, Initial residual = 1.21169e-06, Final residual = 1.21169e-06, No Iterations 2000
    -Solving for ePotential (dielectric: rightDielectric)
GAMG:  Solving for ePotential, Initial residual = 0, Final residual = 0, No Iterations 0
  -ePotential iteration (59/100)
    -Solving for ePotential (gas region: leftGas)
GAMG:  Solving for ePotential, Initial residual = 1.21169e-06, Final residual = 1.21169e-06, No Iterations 2000
    -Solving for ePotential (dielectric: rightDielectric)
GAMG:  Solving for ePotential, Initial residual = 0, Final residual = 0, No Iterations 0
  -ePotential iteration (60/100)
    -Solving for ePotential (gas region: leftGas)
GAMG:  Solving for ePotential, Initial residual = 1.21169e-06, Final residual = 1.21169e-06, No Iterations 2000
    -Solving for ePotential (dielectric: rightDielectric)
GAMG:  Solving for ePotential, Initial residual = 0, Final residual = 0, No Iterations 0
  -ePotential iteration (61/100)
    -Solving for ePotential (gas region: leftGas)
GAMG:  Solving for ePotential, Initial residual = 1.21169e-06, Final residual = 1.21169e-06, No Iterations 2000
    -Solving for ePotential (dielectric: rightDielectric)
GAMG:  Solving for ePotential, Initial residual = 0, Final residual = 0, No Iterations 0
  -ePotential iteration (62/100)
    -Solving for ePotential (gas region: leftGas)
GAMG:  Solving for ePotential, Initial residual = 1.21169e-06, Final residual = 1.21169e-06, No Iterations 2000
    -Solving for ePotential (dielectric: rightDielectric)
GAMG:  Solving for ePotential, Initial residual = 0, Final residual = 0, No Iterations 0
  -ePotential iteration (63/100)
    -Solving for ePotential (gas region: leftGas)
GAMG:  Solving for ePotential, Initial residual = 1.21169e-06, Final residual = 1.21169e-06, No Iterations 2000
    -Solving for ePotential (dielectric: rightDielectric)
GAMG:  Solving for ePotential, Initial residual = 0, Final residual = 0, No Iterations 0
  -ePotential iteration (64/100)
    -Solving for ePotential (gas region: leftGas)
GAMG:  Solving for ePotential, Initial residual = 1.21169e-06, Final residual = 1.21169e-06, No Iterations 2000
    -Solving for ePotential (dielectric: rightDielectric)
GAMG:  Solving for ePotential, Initial residual = 0, Final residual = 0, No Iterations 0
  -ePotential iteration (65/100)
    -Solving for ePotential (gas region: leftGas)
GAMG:  Solving for ePotential, Initial residual = 1.21169e-06, Final residual = 1.21169e-06, No Iterations 2000
    -Solving for ePotential (dielectric: rightDielectric)
GAMG:  Solving for ePotential, Initial residual = 0, Final residual = 0, No Iterations 0
  -ePotential iteration (66/100)
    -Solving for ePotential (gas region: leftGas)
GAMG:  Solving for ePotential, Initial residual = 1.21169e-06, Final residual = 1.21169e-06, No Iterations 2000
    -Solving for ePotential (dielectric: rightDielectric)
GAMG:  Solving for ePotential, Initial residual = 0, Final residual = 0, No Iterations 0
  -ePotential iteration (67/100)
    -Solving for ePotential (gas region: leftGas)
GAMG:  Solving for ePotential, Initial residual = 1.21169e-06, Final residual = 1.21169e-06, No Iterations 2000
    -Solving for ePotential (dielectric: rightDielectric)
GAMG:  Solving for ePotential, Initial residual = 0, Final residual = 0, No Iterations 0
  -ePotential iteration (68/100)
    -Solving for ePotential (gas region: leftGas)
GAMG:  Solving for ePotential, Initial residual = 1.21169e-06, Final residual = 1.21169e-06, No Iterations 2000
    -Solving for ePotential (dielectric: rightDielectric)
GAMG:  Solving for ePotential, Initial residual = 0, Final residual = 0, No Iterations 0
  -ePotential iteration (69/100)
    -Solving for ePotential (gas region: leftGas)
GAMG:  Solving for ePotential, Initial residual = 1.21169e-06, Final residual = 1.21169e-06, No Iterations 2000
    -Solving for ePotential (dielectric: rightDielectric)
GAMG:  Solving for ePotential, Initial residual = 0, Final residual = 0, No Iterations 0
  -ePotential iteration (70/100)
    -Solving for ePotential (gas region: leftGas)
GAMG:  Solving for ePotential, Initial residual = 1.21169e-06, Final residual = 1.21169e-06, No Iterations 2000
    -Solving for ePotential (dielectric: rightDielectric)
GAMG:  Solving for ePotential, Initial residual = 0, Final residual = 0, No Iterations 0
  -ePotential iteration (71/100)
    -Solving for ePotential (gas region: leftGas)
GAMG:  Solving for ePotential, Initial residual = 1.21169e-06, Final residual = 1.21169e-06, No Iterations 2000
    -Solving for ePotential (dielectric: rightDielectric)
GAMG:  Solving for ePotential, Initial residual = 0, Final residual = 0, No Iterations 0
  -ePotential iteration (72/100)
    -Solving for ePotential (gas region: leftGas)
GAMG:  Solving for ePotential, Initial residual = 1.21169e-06, Final residual = 1.21169e-06, No Iterations 2000
    -Solving for ePotential (dielectric: rightDielectric)
GAMG:  Solving for ePotential, Initial residual = 0, Final residual = 0, No Iterations 0
  -ePotential iteration (73/100)
    -Solving for ePotential (gas region: leftGas)
GAMG:  Solving for ePotential, Initial residual = 1.21169e-06, Final residual = 1.21169e-06, No Iterations 2000
    -Solving for ePotential (dielectric: rightDielectric)
GAMG:  Solving for ePotential, Initial residual = 0, Final residual = 0, No Iterations 0
  -ePotential iteration (74/100)
    -Solving for ePotential (gas region: leftGas)
GAMG:  Solving for ePotential, Initial residual = 1.21169e-06, Final residual = 1.21169e-06, No Iterations 2000
    -Solving for ePotential (dielectric: rightDielectric)
GAMG:  Solving for ePotential, Initial residual = 0, Final residual = 0, No Iterations 0
  -ePotential iteration (75/100)
    -Solving for ePotential (gas region: leftGas)
GAMG:  Solving for ePotential, Initial residual = 1.21169e-06, Final residual = 1.21169e-06, No Iterations 2000
    -Solving for ePotential (dielectric: rightDielectric)
GAMG:  Solving for ePotential, Initial residual = 0, Final residual = 0, No Iterations 0
  -ePotential iteration (76/100)
    -Solving for ePotential (gas region: leftGas)
GAMG:  Solving for ePotential, Initial residual = 1.21169e-06, Final residual = 1.21169e-06, No Iterations 2000
    -Solving for ePotential (dielectric: rightDielectric)
GAMG:  Solving for ePotential, Initial residual = 0, Final residual = 0, No Iterations 0
  -ePotential iteration (77/100)
    -Solving for ePotential (gas region: leftGas)
GAMG:  Solving for ePotential, Initial residual = 1.21169e-06, Final residual = 1.21169e-06, No Iterations 2000
    -Solving for ePotential (dielectric: rightDielectric)
GAMG:  Solving for ePotential, Initial residual = 0, Final residual = 0, No Iterations 0
  -ePotential iteration (78/100)
    -Solving for ePotential (gas region: leftGas)
GAMG:  Solving for ePotential, Initial residual = 1.21169e-06, Final residual = 1.21169e-06, No Iterations 2000
    -Solving for ePotential (dielectric: rightDielectric)
GAMG:  Solving for ePotential, Initial residual = 0, Final residual = 0, No Iterations 0
  -ePotential iteration (79/100)
    -Solving for ePotential (gas region: leftGas)
GAMG:  Solving for ePotential, Initial residual = 1.21169e-06, Final residual = 1.21169e-06, No Iterations 2000
    -Solving for ePotential (dielectric: rightDielectric)
GAMG:  Solving for ePotential, Initial residual = 0, Final residual = 0, No Iterations 0
  -ePotential iteration (80/100)
    -Solving for ePotential (gas region: leftGas)
GAMG:  Solving for ePotential, Initial residual = 1.21169e-06, Final residual = 1.21169e-06, No Iterations 2000
    -Solving for ePotential (dielectric: rightDielectric)
GAMG:  Solving for ePotential, Initial residual = 0, Final residual = 0, No Iterations 0
  -ePotential iteration (81/100)
    -Solving for ePotential (gas region: leftGas)
GAMG:  Solving for ePotential, Initial residual = 1.21169e-06, Final residual = 1.21169e-06, No Iterations 2000
    -Solving for ePotential (dielectric: rightDielectric)
GAMG:  Solving for ePotential, Initial residual = 0, Final residual = 0, No Iterations 0
  -ePotential iteration (82/100)
    -Solving for ePotential (gas region: leftGas)
GAMG:  Solving for ePotential, Initial residual = 1.21169e-06, Final residual = 1.21169e-06, No Iterations 2000
    -Solving for ePotential (dielectric: rightDielectric)
GAMG:  Solving for ePotential, Initial residual = 0, Final residual = 0, No Iterations 0
  -ePotential iteration (83/100)
    -Solving for ePotential (gas region: leftGas)
GAMG:  Solving for ePotential, Initial residual = 1.21169e-06, Final residual = 1.21169e-06, No Iterations 2000
    -Solving for ePotential (dielectric: rightDielectric)
GAMG:  Solving for ePotential, Initial residual = 0, Final residual = 0, No Iterations 0
  -ePotential iteration (84/100)
    -Solving for ePotential (gas region: leftGas)
GAMG:  Solving for ePotential, Initial residual = 1.21169e-06, Final residual = 1.21169e-06, No Iterations 2000
    -Solving for ePotential (dielectric: rightDielectric)
GAMG:  Solving for ePotential, Initial residual = 0, Final residual = 0, No Iterations 0
  -ePotential iteration (85/100)
    -Solving for ePotential (gas region: leftGas)
GAMG:  Solving for ePotential, Initial residual = 1.21169e-06, Final residual = 1.21169e-06, No Iterations 2000
    -Solving for ePotential (dielectric: rightDielectric)
GAMG:  Solving for ePotential, Initial residual = 0, Final residual = 0, No Iterations 0
  -ePotential iteration (86/100)
    -Solving for ePotential (gas region: leftGas)
GAMG:  Solving for ePotential, Initial residual = 1.21169e-06, Final residual = 1.21169e-06, No Iterations 2000
    -Solving for ePotential (dielectric: rightDielectric)
GAMG:  Solving for ePotential, Initial residual = 0, Final residual = 0, No Iterations 0
  -ePotential iteration (87/100)
    -Solving for ePotential (gas region: leftGas)
GAMG:  Solving for ePotential, Initial residual = 1.21169e-06, Final residual = 1.21169e-06, No Iterations 2000
    -Solving for ePotential (dielectric: rightDielectric)
GAMG:  Solving for ePotential, Initial residual = 0, Final residual = 0, No Iterations 0
  -ePotential iteration (88/100)
    -Solving for ePotential (gas region: leftGas)
GAMG:  Solving for ePotential, Initial residual = 1.21169e-06, Final residual = 1.21169e-06, No Iterations 2000
    -Solving for ePotential (dielectric: rightDielectric)
GAMG:  Solving for ePotential, Initial residual = 0, Final residual = 0, No Iterations 0
  -ePotential iteration (89/100)
    -Solving for ePotential (gas region: leftGas)
GAMG:  Solving for ePotential, Initial residual = 1.21169e-06, Final residual = 1.21169e-06, No Iterations 2000
    -Solving for ePotential (dielectric: rightDielectric)
GAMG:  Solving for ePotential, Initial residual = 0, Final residual = 0, No Iterations 0
  -ePotential iteration (90/100)
    -Solving for ePotential (gas region: leftGas)
GAMG:  Solving for ePotential, Initial residual = 1.21169e-06, Final residual = 1.21169e-06, No Iterations 2000
    -Solving for ePotential (dielectric: rightDielectric)
GAMG:  Solving for ePotential, Initial residual = 0, Final residual = 0, No Iterations 0
  -ePotential iteration (91/100)
    -Solving for ePotential (gas region: leftGas)
GAMG:  Solving for ePotential, Initial residual = 1.21169e-06, Final residual = 1.21169e-06, No Iterations 2000
    -Solving for ePotential (dielectric: rightDielectric)
GAMG:  Solving for ePotential, Initial residual = 0, Final residual = 0, No Iterations 0
  -ePotential iteration (92/100)
    -Solving for ePotential (gas region: leftGas)
GAMG:  Solving for ePotential, Initial residual = 1.21169e-06, Final residual = 1.21169e-06, No Iterations 2000
    -Solving for ePotential (dielectric: rightDielectric)
GAMG:  Solving for ePotential, Initial residual = 0, Final residual = 0, No Iterations 0
  -ePotential iteration (93/100)
    -Solving for ePotential (gas region: leftGas)
GAMG:  Solving for ePotential, Initial residual = 1.21169e-06, Final residual = 1.21169e-06, No Iterations 2000
    -Solving for ePotential (dielectric: rightDielectric)
GAMG:  Solving for ePotential, Initial residual = 0, Final residual = 0, No Iterations 0
  -ePotential iteration (94/100)
    -Solving for ePotential (gas region: leftGas)
GAMG:  Solving for ePotential, Initial residual = 1.21169e-06, Final residual = 1.21169e-06, No Iterations 2000
    -Solving for ePotential (dielectric: rightDielectric)
GAMG:  Solving for ePotential, Initial residual = 0, Final residual = 0, No Iterations 0
  -ePotential iteration (95/100)
    -Solving for ePotential (gas region: leftGas)
GAMG:  Solving for ePotential, Initial residual = 1.21169e-06, Final residual = 1.21169e-06, No Iterations 2000
    -Solving for ePotential (dielectric: rightDielectric)
GAMG:  Solving for ePotential, Initial residual = 0, Final residual = 0, No Iterations 0
  -ePotential iteration (96/100)
    -Solving for ePotential (gas region: leftGas)
GAMG:  Solving for ePotential, Initial residual = 1.21169e-06, Final residual = 1.21169e-06, No Iterations 2000
    -Solving for ePotential (dielectric: rightDielectric)
GAMG:  Solving for ePotential, Initial residual = 0, Final residual = 0, No Iterations 0
  -ePotential iteration (97/100)
    -Solving for ePotential (gas region: leftGas)
GAMG:  Solving for ePotential, Initial residual = 1.21169e-06, Final residual = 1.21169e-06, No Iterations 2000
    -Solving for ePotential (dielectric: rightDielectric)
GAMG:  Solving for ePotential, Initial residual = 0, Final residual = 0, No Iterations 0
  -ePotential iteration (98/100)
    -Solving for ePotential (gas region: leftGas)
GAMG:  Solving for ePotential, Initial residual = 1.21169e-06, Final residual = 1.21169e-06, No Iterations 2000
    -Solving for ePotential (dielectric: rightDielectric)
GAMG:  Solving for ePotential, Initial residual = 0, Final residual = 0, No Iterations 0
  -ePotential iteration (99/100)
    -Solving for ePotential (gas region: leftGas)
GAMG:  Solving for ePotential, Initial residual = 1.21169e-06, Final residual = 1.21169e-06, No Iterations 2000
    -Solving for ePotential (dielectric: rightDielectric)
GAMG:  Solving for ePotential, Initial residual = 0, Final residual = 0, No Iterations 0
  -ePotential iteration (100/100)
    -Solving for ePotential (gas region: leftGas)
GAMG:  Solving for ePotential, Initial residual = 1.21169e-06, Final residual = 1.21169e-06, No Iterations 2000
    -Solving for ePotential (dielectric: rightDielectric)
GAMG:  Solving for ePotential, Initial residual = 0, Final residual = 0, No Iterations 0
>>> WARNING: ePotential did NOT converge after 100 iterations.
ExecutionTime = 0.47 s  ClockTime = 0 s

End

