/*---------------------------------------------------------------------------*\
| =========                 |                                                 |
| \\      /  F ield         | OpenFOAM: The Open Source CFD Toolbox           |
|  \\    /   O peration     | Version:  2412                                  |
|   \\  /    A nd           | Website:  www.openfoam.com                      |
|    \\/     M anipulation  |                                                 |
\*---------------------------------------------------------------------------*/
Build  : _8dbc61e11c-20241220 OPENFOAM=2412 version=v2412
Arch   : "LSB;label=32;scalar=64"
Exec   : electroPotentialMultiRegionFoam
Date   : May 15 2026
Time   : 17:24:50
Host   : rpasolari
PID    : 103835
I/O    : uncollated
Case   : /home/rpasolari-wsl/Linux-Desktop/CERTH/solvers/OpenFOAM/OF2412/foamPlasmaToolkit/tutorials/electrostatics/electroPotentialMultiRegionFoam/plate2D_timeVaryingBC_explicitBoundary
nProcs : 1
trapFpe: Floating point exception trapping enabled (FOAM_SIGFPE).
fileModificationChecking : Monitoring run-time modified files using timeStampMaster (fileModificationSkew 5, maxFileModificationPolls 20)
allowSystemOperations : Allowing user-supplied system call operations

// * * * * * * * * * * * * * * * * * * * * * * * * * * * * * * * * * * * * * //
Create time

Create fluid mesh for region leftFluid for time = 0

Create dielectric mesh for region rightDielectric for time = 0

*** Reading fields for region leftFluid

   Adding to ePotentialFluid

   Adding to eChargeFluid

   Adding to surfChargeFluid

   Adding material's permittivity

*** Reading fields for region rightDielectric

   Adding to ePotentialDielectric

   Adding to surfChargeDielectric

   Adding material's permittivity

Regions are NOT coupled; ePotential will be solved in SEGREGATE way

*** Segregated electric potential controls:
   - Max iterations: 200
   - (Fluid region) leftFluid : nNonOrth=0 , tolerance: 1e-09
   - (Dielectric region) rightDielectric : nNonOrth=0 , tolerance: 1e-09


Starting iteration loop

Time = 1

Solving for ePotential in non-coupled regions (segregate)

  -ePotential iteration (1/200)

Solving for ePotential in region leftFluid
GAMG:  Solving for ePotential, Initial residual = 1, Final residual = 1.86767e-10, No Iterations 9

Solving for ePotential in region rightDielectric
GAMG:  Solving for ePotential, Initial residual = 1, Final residual = 3.23821e-10, No Iterations 11

  -ePotential iteration (2/200)

Solving for ePotential in region leftFluid
GAMG:  Solving for ePotential, Initial residual = 0.0332103, Final residual = 6.37431e-10, No Iterations 7

Solving for ePotential in region rightDielectric
GAMG:  Solving for ePotential, Initial residual = 0.090301, Final residual = 1.85112e-10, No Iterations 10

  -ePotential iteration (3/200)

Solving for ePotential in region leftFluid
GAMG:  Solving for ePotential, Initial residual = 0.0186507, Final residual = 3.57977e-10, No Iterations 7

Solving for ePotential in region rightDielectric
GAMG:  Solving for ePotential, Initial residual = 0.0332194, Final residual = 4.32087e-10, No Iterations 9

  -ePotential iteration (4/200)

Solving for ePotential in region leftFluid
GAMG:  Solving for ePotential, Initial residual = 0.0102022, Final residual = 1.95819e-10, No Iterations 7

Solving for ePotential in region rightDielectric
GAMG:  Solving for ePotential, Initial residual = 0.0151409, Final residual = 1.96939e-10, No Iterations 9

  -ePotential iteration (5/200)

Solving for ePotential in region leftFluid
GAMG:  Solving for ePotential, Initial residual = 0.00549796, Final residual = 9.11635e-10, No Iterations 6

Solving for ePotential in region rightDielectric
GAMG:  Solving for ePotential, Initial residual = 0.00746608, Final residual = 6.17767e-10, No Iterations 8

  -ePotential iteration (6/200)

Solving for ePotential in region leftFluid
GAMG:  Solving for ePotential, Initial residual = 0.00293856, Final residual = 4.87255e-10, No Iterations 6

Solving for ePotential in region rightDielectric
GAMG:  Solving for ePotential, Initial residual = 0.00381416, Final residual = 3.15596e-10, No Iterations 8

  -ePotential iteration (7/200)

Solving for ePotential in region leftFluid
GAMG:  Solving for ePotential, Initial residual = 0.00156364, Final residual = 2.59273e-10, No Iterations 6

Solving for ePotential in region rightDielectric
GAMG:  Solving for ePotential, Initial residual = 0.00198249, Final residual = 1.64038e-10, No Iterations 8

  -ePotential iteration (8/200)

Solving for ePotential in region leftFluid
GAMG:  Solving for ePotential, Initial residual = 0.000830048, Final residual = 1.37633e-10, No Iterations 6

Solving for ePotential in region rightDielectric
GAMG:  Solving for ePotential, Initial residual = 0.00103953, Final residual = 5.51987e-10, No Iterations 7

  -ePotential iteration (9/200)

Solving for ePotential in region leftFluid
GAMG:  Solving for ePotential, Initial residual = 0.000440068, Final residual = 6.27153e-10, No Iterations 5

Solving for ePotential in region rightDielectric
GAMG:  Solving for ePotential, Initial residual = 0.000547573, Final residual = 2.9076e-10, No Iterations 7

  -ePotential iteration (10/200)

Solving for ePotential in region leftFluid
GAMG:  Solving for ePotential, Initial residual = 0.000233155, Final residual = 3.32287e-10, No Iterations 5

Solving for ePotential in region rightDielectric
GAMG:  Solving for ePotential, Initial residual = 0.000289122, Final residual = 9.95506e-10, No Iterations 6

  -ePotential iteration (11/200)

Solving for ePotential in region leftFluid
GAMG:  Solving for ePotential, Initial residual = 0.000123484, Final residual = 1.75989e-10, No Iterations 5

Solving for ePotential in region rightDielectric
GAMG:  Solving for ePotential, Initial residual = 0.00015285, Final residual = 5.26303e-10, No Iterations 6

  -ePotential iteration (12/200)

Solving for ePotential in region leftFluid
GAMG:  Solving for ePotential, Initial residual = 6.53881e-05, Final residual = 7.96851e-10, No Iterations 4

Solving for ePotential in region rightDielectric
GAMG:  Solving for ePotential, Initial residual = 8.08606e-05, Final residual = 2.78427e-10, No Iterations 6

  -ePotential iteration (13/200)

Solving for ePotential in region leftFluid
GAMG:  Solving for ePotential, Initial residual = 3.46218e-05, Final residual = 4.22056e-10, No Iterations 4

Solving for ePotential in region rightDielectric
GAMG:  Solving for ePotential, Initial residual = 4.27918e-05, Final residual = 9.72956e-10, No Iterations 5

  -ePotential iteration (14/200)

Solving for ePotential in region leftFluid
GAMG:  Solving for ePotential, Initial residual = 1.83302e-05, Final residual = 2.23465e-10, No Iterations 4

Solving for ePotential in region rightDielectric
GAMG:  Solving for ePotential, Initial residual = 2.26503e-05, Final residual = 5.1505e-10, No Iterations 5

  -ePotential iteration (15/200)

Solving for ePotential in region leftFluid
GAMG:  Solving for ePotential, Initial residual = 9.70459e-06, Final residual = 1.18304e-10, No Iterations 4

Solving for ePotential in region rightDielectric
GAMG:  Solving for ePotential, Initial residual = 1.19901e-05, Final residual = 2.72652e-10, No Iterations 5

  -ePotential iteration (16/200)

Solving for ePotential in region leftFluid
GAMG:  Solving for ePotential, Initial residual = 5.13784e-06, Final residual = 5.39688e-10, No Iterations 3

Solving for ePotential in region rightDielectric
GAMG:  Solving for ePotential, Initial residual = 6.34735e-06, Final residual = 9.5945e-10, No Iterations 4

  -ePotential iteration (17/200)

Solving for ePotential in region leftFluid
GAMG:  Solving for ePotential, Initial residual = 2.72043e-06, Final residual = 2.867e-10, No Iterations 3

Solving for ePotential in region rightDielectric
GAMG:  Solving for ePotential, Initial residual = 3.36082e-06, Final residual = 5.08335e-10, No Iterations 4

  -ePotential iteration (18/200)

Solving for ePotential in region leftFluid
GAMG:  Solving for ePotential, Initial residual = 1.44029e-06, Final residual = 1.51755e-10, No Iterations 3

Solving for ePotential in region rightDielectric
GAMG:  Solving for ePotential, Initial residual = 1.77929e-06, Final residual = 2.69161e-10, No Iterations 4

  -ePotential iteration (19/200)

Solving for ePotential in region leftFluid
GAMG:  Solving for ePotential, Initial residual = 7.62536e-07, Final residual = 7.23616e-10, No Iterations 2

Solving for ePotential in region rightDielectric
GAMG:  Solving for ePotential, Initial residual = 9.4205e-07, Final residual = 9.65494e-10, No Iterations 3

  -ePotential iteration (20/200)

Solving for ePotential in region leftFluid
GAMG:  Solving for ePotential, Initial residual = 4.04238e-07, Final residual = 3.94384e-10, No Iterations 2

Solving for ePotential in region rightDielectric
GAMG:  Solving for ePotential, Initial residual = 4.99264e-07, Final residual = 5.13848e-10, No Iterations 3

  -ePotential iteration (21/200)

Solving for ePotential in region leftFluid
GAMG:  Solving for ePotential, Initial residual = 2.14065e-07, Final residual = 2.08766e-10, No Iterations 2

Solving for ePotential in region rightDielectric
GAMG:  Solving for ePotential, Initial residual = 2.64374e-07, Final residual = 2.72306e-10, No Iterations 3

  -ePotential iteration (22/200)

Solving for ePotential in region leftFluid
GAMG:  Solving for ePotential, Initial residual = 1.13353e-07, Final residual = 1.10454e-10, No Iterations 2

Solving for ePotential in region rightDielectric
GAMG:  Solving for ePotential, Initial residual = 1.39993e-07, Final residual = 9.07832e-10, No Iterations 2

  -ePotential iteration (23/200)

Solving for ePotential in region leftFluid
GAMG:  Solving for ePotential, Initial residual = 5.9975e-08, Final residual = 7.4331e-10, No Iterations 1

Solving for ePotential in region rightDielectric
GAMG:  Solving for ePotential, Initial residual = 7.47456e-08, Final residual = 5.04519e-10, No Iterations 2

  -ePotential iteration (24/200)

Solving for ePotential in region leftFluid
GAMG:  Solving for ePotential, Initial residual = 3.251e-08, Final residual = 4.62232e-10, No Iterations 1

Solving for ePotential in region rightDielectric
GAMG:  Solving for ePotential, Initial residual = 3.95773e-08, Final residual = 2.67959e-10, No Iterations 2

  -ePotential iteration (25/200)

Solving for ePotential in region leftFluid
GAMG:  Solving for ePotential, Initial residual = 1.72735e-08, Final residual = 2.53869e-10, No Iterations 1

Solving for ePotential in region rightDielectric
GAMG:  Solving for ePotential, Initial residual = 2.09351e-08, Final residual = 8.51928e-10, No Iterations 1

  -ePotential iteration (26/200)

Solving for ePotential in region leftFluid
GAMG:  Solving for ePotential, Initial residual = 9.10903e-09, Final residual = 1.3861e-10, No Iterations 1

Solving for ePotential in region rightDielectric
GAMG:  Solving for ePotential, Initial residual = 1.16953e-08, Final residual = 5.36839e-10, No Iterations 1

  -ePotential iteration (27/200)

Solving for ePotential in region leftFluid
GAMG:  Solving for ePotential, Initial residual = 4.8394e-09, Final residual = 7.28598e-11, No Iterations 1

Solving for ePotential in region rightDielectric
GAMG:  Solving for ePotential, Initial residual = 6.25557e-09, Final residual = 3.07703e-10, No Iterations 1

  -ePotential iteration (28/200)

Solving for ePotential in region leftFluid
GAMG:  Solving for ePotential, Initial residual = 2.56805e-09, Final residual = 3.75481e-11, No Iterations 1

Solving for ePotential in region rightDielectric
GAMG:  Solving for ePotential, Initial residual = 3.33349e-09, Final residual = 1.71607e-10, No Iterations 1

  -ePotential iteration (29/200)

Solving for ePotential in region leftFluid
GAMG:  Solving for ePotential, Initial residual = 1.36196e-09, Final residual = 1.92726e-11, No Iterations 1

Solving for ePotential in region rightDielectric
GAMG:  Solving for ePotential, Initial residual = 1.77397e-09, Final residual = 9.44742e-11, No Iterations 1

  -ePotential iteration (30/200)

Solving for ePotential in region leftFluid
GAMG:  Solving for ePotential, Initial residual = 7.22156e-10, Final residual = 7.22156e-10, No Iterations 0

Solving for ePotential in region rightDielectric
GAMG:  Solving for ePotential, Initial residual = 9.44742e-11, Final residual = 9.44742e-11, No Iterations 0

>>> ePotential converged in 30 iterations.
ExecutionTime = 0.01 s  ClockTime = 0 s

Time = 2

Solving for ePotential in non-coupled regions (segregate)

  -ePotential iteration (1/200)

Solving for ePotential in region leftFluid
GAMG:  Solving for ePotential, Initial residual = 0.391304, Final residual = 6.32476e-10, No Iterations 8

Solving for ePotential in region rightDielectric
GAMG:  Solving for ePotential, Initial residual = 0.0810811, Final residual = 1.66211e-10, No Iterations 10

  -ePotential iteration (2/200)

Solving for ePotential in region leftFluid
GAMG:  Solving for ePotential, Initial residual = 0.0176817, Final residual = 3.39379e-10, No Iterations 7

Solving for ePotential in region rightDielectric
GAMG:  Solving for ePotential, Initial residual = 0.0307868, Final residual = 4.00446e-10, No Iterations 9

  -ePotential iteration (3/200)

Solving for ePotential in region leftFluid
GAMG:  Solving for ePotential, Initial residual = 0.0096555, Final residual = 1.85325e-10, No Iterations 7

Solving for ePotential in region rightDielectric
GAMG:  Solving for ePotential, Initial residual = 0.0141765, Final residual = 1.84395e-10, No Iterations 9

  -ePotential iteration (4/200)

Solving for ePotential in region leftFluid
GAMG:  Solving for ePotential, Initial residual = 0.00519834, Final residual = 8.61954e-10, No Iterations 6

Solving for ePotential in region rightDielectric
GAMG:  Solving for ePotential, Initial residual = 0.00702121, Final residual = 5.80957e-10, No Iterations 8

  -ePotential iteration (5/200)

Solving for ePotential in region leftFluid
GAMG:  Solving for ePotential, Initial residual = 0.00277697, Final residual = 4.60461e-10, No Iterations 6

Solving for ePotential in region rightDielectric
GAMG:  Solving for ePotential, Initial residual = 0.00359439, Final residual = 2.97411e-10, No Iterations 8

  -ePotential iteration (6/200)

Solving for ePotential in region leftFluid
GAMG:  Solving for ePotential, Initial residual = 0.00147724, Final residual = 2.44947e-10, No Iterations 6

Solving for ePotential in region rightDielectric
GAMG:  Solving for ePotential, Initial residual = 0.00187022, Final residual = 9.9308e-10, No Iterations 7

  -ePotential iteration (7/200)

Solving for ePotential in region leftFluid
GAMG:  Solving for ePotential, Initial residual = 0.000784067, Final residual = 1.30009e-10, No Iterations 6

Solving for ePotential in region rightDielectric
GAMG:  Solving for ePotential, Initial residual = 0.000981195, Final residual = 5.21012e-10, No Iterations 7

  -ePotential iteration (8/200)

Solving for ePotential in region leftFluid
GAMG:  Solving for ePotential, Initial residual = 0.000415657, Final residual = 5.92364e-10, No Iterations 5

Solving for ePotential in region rightDielectric
GAMG:  Solving for ePotential, Initial residual = 0.000516989, Final residual = 2.7452e-10, No Iterations 7

  -ePotential iteration (9/200)

Solving for ePotential in region leftFluid
GAMG:  Solving for ePotential, Initial residual = 0.000220212, Final residual = 3.13841e-10, No Iterations 5

Solving for ePotential in region rightDielectric
GAMG:  Solving for ePotential, Initial residual = 0.000273014, Final residual = 9.40045e-10, No Iterations 6

  -ePotential iteration (10/200)

Solving for ePotential in region leftFluid
GAMG:  Solving for ePotential, Initial residual = 0.000116627, Final residual = 1.66216e-10, No Iterations 5

Solving for ePotential in region rightDielectric
GAMG:  Solving for ePotential, Initial residual = 0.000144346, Final residual = 4.9702e-10, No Iterations 6

  -ePotential iteration (11/200)

Solving for ePotential in region leftFluid
GAMG:  Solving for ePotential, Initial residual = 6.17562e-05, Final residual = 7.52592e-10, No Iterations 4

Solving for ePotential in region rightDielectric
GAMG:  Solving for ePotential, Initial residual = 7.63648e-05, Final residual = 2.62946e-10, No Iterations 6

  -ePotential iteration (12/200)

Solving for ePotential in region leftFluid
GAMG:  Solving for ePotential, Initial residual = 3.26986e-05, Final residual = 3.98611e-10, No Iterations 4

Solving for ePotential in region rightDielectric
GAMG:  Solving for ePotential, Initial residual = 4.04134e-05, Final residual = 9.18881e-10, No Iterations 5

  -ePotential iteration (13/200)

Solving for ePotential in region leftFluid
GAMG:  Solving for ePotential, Initial residual = 1.73119e-05, Final residual = 2.11052e-10, No Iterations 4

Solving for ePotential in region rightDielectric
GAMG:  Solving for ePotential, Initial residual = 2.13917e-05, Final residual = 4.8643e-10, No Iterations 5

  -ePotential iteration (14/200)

Solving for ePotential in region leftFluid
GAMG:  Solving for ePotential, Initial residual = 9.16547e-06, Final residual = 9.62784e-10, No Iterations 3

Solving for ePotential in region rightDielectric
GAMG:  Solving for ePotential, Initial residual = 1.13239e-05, Final residual = 2.57517e-10, No Iterations 5

  -ePotential iteration (15/200)

Solving for ePotential in region leftFluid
GAMG:  Solving for ePotential, Initial residual = 4.85322e-06, Final residual = 5.11337e-10, No Iterations 3

Solving for ePotential in region rightDielectric
GAMG:  Solving for ePotential, Initial residual = 5.99471e-06, Final residual = 9.06084e-10, No Iterations 4

  -ePotential iteration (16/200)

Solving for ePotential in region leftFluid
GAMG:  Solving for ePotential, Initial residual = 2.5693e-06, Final residual = 2.70813e-10, No Iterations 3

Solving for ePotential in region rightDielectric
GAMG:  Solving for ePotential, Initial residual = 3.1741e-06, Final residual = 4.80072e-10, No Iterations 4

  -ePotential iteration (17/200)

Solving for ePotential in region leftFluid
GAMG:  Solving for ePotential, Initial residual = 1.36027e-06, Final residual = 1.43334e-10, No Iterations 3

Solving for ePotential in region rightDielectric
GAMG:  Solving for ePotential, Initial residual = 1.68044e-06, Final residual = 2.542e-10, No Iterations 4

  -ePotential iteration (18/200)

Solving for ePotential in region leftFluid
GAMG:  Solving for ePotential, Initial residual = 7.20173e-07, Final residual = 6.83447e-10, No Iterations 2

Solving for ePotential in region rightDielectric
GAMG:  Solving for ePotential, Initial residual = 8.89714e-07, Final residual = 9.11836e-10, No Iterations 3

  -ePotential iteration (19/200)

Solving for ePotential in region leftFluid
GAMG:  Solving for ePotential, Initial residual = 3.81781e-07, Final residual = 3.72485e-10, No Iterations 2

Solving for ePotential in region rightDielectric
GAMG:  Solving for ePotential, Initial residual = 4.71528e-07, Final residual = 4.85294e-10, No Iterations 3

  -ePotential iteration (20/200)

Solving for ePotential in region leftFluid
GAMG:  Solving for ePotential, Initial residual = 2.02172e-07, Final residual = 1.97172e-10, No Iterations 2

Solving for ePotential in region rightDielectric
GAMG:  Solving for ePotential, Initial residual = 2.49687e-07, Final residual = 2.57175e-10, No Iterations 3

  -ePotential iteration (21/200)

Solving for ePotential in region leftFluid
GAMG:  Solving for ePotential, Initial residual = 1.07055e-07, Final residual = 1.0432e-10, No Iterations 2

Solving for ePotential in region rightDielectric
GAMG:  Solving for ePotential, Initial residual = 1.32215e-07, Final residual = 8.57391e-10, No Iterations 2

  -ePotential iteration (22/200)

Solving for ePotential in region leftFluid
GAMG:  Solving for ePotential, Initial residual = 5.66432e-08, Final residual = 7.02018e-10, No Iterations 1

Solving for ePotential in region rightDielectric
GAMG:  Solving for ePotential, Initial residual = 7.05931e-08, Final residual = 4.76488e-10, No Iterations 2

  -ePotential iteration (23/200)

Solving for ePotential in region leftFluid
GAMG:  Solving for ePotential, Initial residual = 3.07039e-08, Final residual = 4.36554e-10, No Iterations 1

Solving for ePotential in region rightDielectric
GAMG:  Solving for ePotential, Initial residual = 3.73785e-08, Final residual = 2.53072e-10, No Iterations 2

  -ePotential iteration (24/200)

Solving for ePotential in region leftFluid
GAMG:  Solving for ePotential, Initial residual = 1.63138e-08, Final residual = 2.39767e-10, No Iterations 1

Solving for ePotential in region rightDielectric
GAMG:  Solving for ePotential, Initial residual = 1.97721e-08, Final residual = 8.04597e-10, No Iterations 1

  -ePotential iteration (25/200)

Solving for ePotential in region leftFluid
GAMG:  Solving for ePotential, Initial residual = 8.60298e-09, Final residual = 1.3091e-10, No Iterations 1

Solving for ePotential in region rightDielectric
GAMG:  Solving for ePotential, Initial residual = 1.10455e-08, Final residual = 5.07014e-10, No Iterations 1

  -ePotential iteration (26/200)

Solving for ePotential in region leftFluid
GAMG:  Solving for ePotential, Initial residual = 4.57055e-09, Final residual = 6.88121e-11, No Iterations 1

Solving for ePotential in region rightDielectric
GAMG:  Solving for ePotential, Initial residual = 5.90805e-09, Final residual = 2.90608e-10, No Iterations 1

  -ePotential iteration (27/200)

Solving for ePotential in region leftFluid
GAMG:  Solving for ePotential, Initial residual = 2.42538e-09, Final residual = 3.54621e-11, No Iterations 1

Solving for ePotential in region rightDielectric
GAMG:  Solving for ePotential, Initial residual = 3.1483e-09, Final residual = 1.62074e-10, No Iterations 1

  -ePotential iteration (28/200)

Solving for ePotential in region leftFluid
GAMG:  Solving for ePotential, Initial residual = 1.2863e-09, Final residual = 1.82019e-11, No Iterations 1

Solving for ePotential in region rightDielectric
GAMG:  Solving for ePotential, Initial residual = 1.67542e-09, Final residual = 8.92256e-11, No Iterations 1

  -ePotential iteration (29/200)

Solving for ePotential in region leftFluid
GAMG:  Solving for ePotential, Initial residual = 6.82037e-10, Final residual = 6.82037e-10, No Iterations 0

Solving for ePotential in region rightDielectric
GAMG:  Solving for ePotential, Initial residual = 8.92256e-11, Final residual = 8.92256e-11, No Iterations 0

>>> ePotential converged in 29 iterations.
ExecutionTime = 0.01 s  ClockTime = 0 s

Time = 3

Solving for ePotential in non-coupled regions (segregate)

  -ePotential iteration (1/200)

Solving for ePotential in region leftFluid
GAMG:  Solving for ePotential, Initial residual = 0.243243, Final residual = 3.93161e-10, No Iterations 8

Solving for ePotential in region rightDielectric
GAMG:  Solving for ePotential, Initial residual = 0.0422535, Final residual = 5.49595e-10, No Iterations 9

  -ePotential iteration (2/200)

Solving for ePotential in region leftFluid
GAMG:  Solving for ePotential, Initial residual = 0.0120482, Final residual = 2.3125e-10, No Iterations 7

Solving for ePotential in region rightDielectric
GAMG:  Solving for ePotential, Initial residual = 0.0185567, Final residual = 2.41368e-10, No Iterations 9

  -ePotential iteration (3/200)

Solving for ePotential in region leftFluid
GAMG:  Solving for ePotential, Initial residual = 0.00651387, Final residual = 1.25026e-10, No Iterations 7

Solving for ePotential in region rightDielectric
GAMG:  Solving for ePotential, Initial residual = 0.00901101, Final residual = 7.456e-10, No Iterations 8

  -ePotential iteration (4/200)

Solving for ePotential in region leftFluid
GAMG:  Solving for ePotential, Initial residual = 0.00348772, Final residual = 5.7831e-10, No Iterations 6

Solving for ePotential in region rightDielectric
GAMG:  Solving for ePotential, Initial residual = 0.00457028, Final residual = 3.78159e-10, No Iterations 8

  -ePotential iteration (5/200)

Solving for ePotential in region leftFluid
GAMG:  Solving for ePotential, Initial residual = 0.00185762, Final residual = 3.08019e-10, No Iterations 6

Solving for ePotential in region rightDielectric
GAMG:  Solving for ePotential, Initial residual = 0.00236695, Final residual = 1.9585e-10, No Iterations 8

  -ePotential iteration (6/200)

Solving for ePotential in region leftFluid
GAMG:  Solving for ePotential, Initial residual = 0.000986609, Final residual = 1.63593e-10, No Iterations 6

Solving for ePotential in region rightDielectric
GAMG:  Solving for ePotential, Initial residual = 0.00123883, Final residual = 6.57816e-10, No Iterations 7

  -ePotential iteration (7/200)

Solving for ePotential in region leftFluid
GAMG:  Solving for ePotential, Initial residual = 0.000523213, Final residual = 7.45646e-10, No Iterations 5

Solving for ePotential in region rightDielectric
GAMG:  Solving for ePotential, Initial residual = 0.000651927, Final residual = 3.46171e-10, No Iterations 7

  -ePotential iteration (8/200)

Solving for ePotential in region leftFluid
GAMG:  Solving for ePotential, Initial residual = 0.000277246, Final residual = 3.95125e-10, No Iterations 5

Solving for ePotential in region rightDielectric
GAMG:  Solving for ePotential, Initial residual = 0.000344047, Final residual = 1.82688e-10, No Iterations 7

  -ePotential iteration (9/200)

Solving for ePotential in region leftFluid
GAMG:  Solving for ePotential, Initial residual = 0.000146848, Final residual = 2.09284e-10, No Iterations 5

Solving for ePotential in region rightDielectric
GAMG:  Solving for ePotential, Initial residual = 0.000181838, Final residual = 6.26107e-10, No Iterations 6

  -ePotential iteration (10/200)

Solving for ePotential in region leftFluid
GAMG:  Solving for ePotential, Initial residual = 7.77625e-05, Final residual = 9.4766e-10, No Iterations 4

Solving for ePotential in region rightDielectric
GAMG:  Solving for ePotential, Initial residual = 9.61826e-05, Final residual = 3.31184e-10, No Iterations 6

  -ePotential iteration (11/200)

Solving for ePotential in region leftFluid
GAMG:  Solving for ePotential, Initial residual = 4.11747e-05, Final residual = 5.01941e-10, No Iterations 4

Solving for ePotential in region rightDielectric
GAMG:  Solving for ePotential, Initial residual = 5.08965e-05, Final residual = 1.7525e-10, No Iterations 6

  -ePotential iteration (12/200)

Solving for ePotential in region leftFluid
GAMG:  Solving for ePotential, Initial residual = 2.18e-05, Final residual = 2.65755e-10, No Iterations 4

Solving for ePotential in region rightDielectric
GAMG:  Solving for ePotential, Initial residual = 2.69386e-05, Final residual = 6.12499e-10, No Iterations 5

  -ePotential iteration (13/200)

Solving for ePotential in region leftFluid
GAMG:  Solving for ePotential, Initial residual = 1.15415e-05, Final residual = 1.40705e-10, No Iterations 4

Solving for ePotential in region rightDielectric
GAMG:  Solving for ePotential, Initial residual = 1.42601e-05, Final residual = 3.24262e-10, No Iterations 5

  -ePotential iteration (14/200)

Solving for ePotential in region leftFluid
GAMG:  Solving for ePotential, Initial residual = 6.11038e-06, Final residual = 6.41866e-10, No Iterations 3

Solving for ePotential in region rightDielectric
GAMG:  Solving for ePotential, Initial residual = 7.54897e-06, Final residual = 1.71671e-10, No Iterations 5

  -ePotential iteration (15/200)

Solving for ePotential in region leftFluid
GAMG:  Solving for ePotential, Initial residual = 3.2355e-06, Final residual = 3.40894e-10, No Iterations 3

Solving for ePotential in region rightDielectric
GAMG:  Solving for ePotential, Initial residual = 3.99639e-06, Final residual = 6.04043e-10, No Iterations 4

  -ePotential iteration (16/200)

Solving for ePotential in region leftFluid
GAMG:  Solving for ePotential, Initial residual = 1.71287e-06, Final residual = 1.80543e-10, No Iterations 3

Solving for ePotential in region rightDielectric
GAMG:  Solving for ePotential, Initial residual = 2.11605e-06, Final residual = 3.20044e-10, No Iterations 4

  -ePotential iteration (17/200)

Solving for ePotential in region leftFluid
GAMG:  Solving for ePotential, Initial residual = 9.06852e-07, Final residual = 8.60781e-10, No Iterations 2

Solving for ePotential in region rightDielectric
GAMG:  Solving for ePotential, Initial residual = 1.12034e-06, Final residual = 1.69579e-10, No Iterations 4

  -ePotential iteration (18/200)

Solving for ePotential in region leftFluid
GAMG:  Solving for ePotential, Initial residual = 4.80863e-07, Final residual = 4.68303e-10, No Iterations 2

Solving for ePotential in region rightDielectric
GAMG:  Solving for ePotential, Initial residual = 5.93116e-07, Final residual = 6.07423e-10, No Iterations 3

  -ePotential iteration (19/200)

Solving for ePotential in region leftFluid
GAMG:  Solving for ePotential, Initial residual = 2.54522e-07, Final residual = 2.48832e-10, No Iterations 2

Solving for ePotential in region rightDielectric
GAMG:  Solving for ePotential, Initial residual = 3.14338e-07, Final residual = 3.23346e-10, No Iterations 3

  -ePotential iteration (20/200)

Solving for ePotential in region leftFluid
GAMG:  Solving for ePotential, Initial residual = 1.34776e-07, Final residual = 1.31552e-10, No Iterations 2

Solving for ePotential in region rightDielectric
GAMG:  Solving for ePotential, Initial residual = 1.6645e-07, Final residual = 1.71381e-10, No Iterations 3

  -ePotential iteration (21/200)

Solving for ePotential in region leftFluid
GAMG:  Solving for ePotential, Initial residual = 7.13673e-08, Final residual = 8.80189e-10, No Iterations 1

Solving for ePotential in region rightDielectric
GAMG:  Solving for ePotential, Initial residual = 8.8297e-08, Final residual = 5.76483e-10, No Iterations 2

  -ePotential iteration (22/200)

Solving for ePotential in region leftFluid
GAMG:  Solving for ePotential, Initial residual = 3.8627e-08, Final residual = 5.5165e-10, No Iterations 1

Solving for ePotential in region rightDielectric
GAMG:  Solving for ePotential, Initial residual = 4.70082e-08, Final residual = 3.15254e-10, No Iterations 2

  -ePotential iteration (23/200)

Solving for ePotential in region leftFluid
GAMG:  Solving for ePotential, Initial residual = 2.05243e-08, Final residual = 3.03385e-10, No Iterations 1

Solving for ePotential in region rightDielectric
GAMG:  Solving for ePotential, Initial residual = 2.48706e-08, Final residual = 1.67194e-10, No Iterations 2

  -ePotential iteration (24/200)

Solving for ePotential in region leftFluid
GAMG:  Solving for ePotential, Initial residual = 1.08673e-08, Final residual = 1.6203e-10, No Iterations 1

Solving for ePotential in region rightDielectric
GAMG:  Solving for ePotential, Initial residual = 1.31536e-08, Final residual = 5.32568e-10, No Iterations 1

  -ePotential iteration (25/200)

Solving for ePotential in region leftFluid
GAMG:  Solving for ePotential, Initial residual = 5.72575e-09, Final residual = 8.77161e-11, No Iterations 1

Solving for ePotential in region rightDielectric
GAMG:  Solving for ePotential, Initial residual = 7.34671e-09, Final residual = 3.35877e-10, No Iterations 1

  -ePotential iteration (26/200)

Solving for ePotential in region leftFluid
GAMG:  Solving for ePotential, Initial residual = 3.04123e-09, Final residual = 4.59807e-11, No Iterations 1

Solving for ePotential in region rightDielectric
GAMG:  Solving for ePotential, Initial residual = 3.92963e-09, Final residual = 1.92672e-10, No Iterations 1

  -ePotential iteration (27/200)

Solving for ePotential in region leftFluid
GAMG:  Solving for ePotential, Initial residual = 1.61372e-09, Final residual = 2.36686e-11, No Iterations 1

Solving for ePotential in region rightDielectric
GAMG:  Solving for ePotential, Initial residual = 2.09409e-09, Final residual = 1.07534e-10, No Iterations 1

  -ePotential iteration (28/200)

Solving for ePotential in region leftFluid
GAMG:  Solving for ePotential, Initial residual = 8.55813e-10, Final residual = 8.55813e-10, No Iterations 0

Solving for ePotential in region rightDielectric
GAMG:  Solving for ePotential, Initial residual = 1.07534e-10, Final residual = 1.07534e-10, No Iterations 0

>>> ePotential converged in 28 iterations.
ExecutionTime = 0.02 s  ClockTime = 0 s

Time = 4

Solving for ePotential in non-coupled regions (segregate)

  -ePotential iteration (1/200)

Solving for ePotential in region leftFluid
GAMG:  Solving for ePotential, Initial residual = 0.176471, Final residual = 2.85235e-10, No Iterations 8

Solving for ePotential in region rightDielectric
GAMG:  Solving for ePotential, Initial residual = 0.0285714, Final residual = 3.71631e-10, No Iterations 9

  -ePotential iteration (2/200)

Solving for ePotential in region leftFluid
GAMG:  Solving for ePotential, Initial residual = 0.00913706, Final residual = 1.75374e-10, No Iterations 7

Solving for ePotential in region rightDielectric
GAMG:  Solving for ePotential, Initial residual = 0.0132809, Final residual = 1.72745e-10, No Iterations 9

  -ePotential iteration (3/200)

Solving for ePotential in region leftFluid
GAMG:  Solving for ePotential, Initial residual = 0.00491475, Final residual = 8.14931e-10, No Iterations 6

Solving for ePotential in region rightDielectric
GAMG:  Solving for ePotential, Initial residual = 0.00660452, Final residual = 5.46479e-10, No Iterations 8

  -ePotential iteration (4/200)

Solving for ePotential in region leftFluid
GAMG:  Solving for ePotential, Initial residual = 0.00262418, Final residual = 4.35126e-10, No Iterations 6

Solving for ePotential in region rightDielectric
GAMG:  Solving for ePotential, Initial residual = 0.00338771, Final residual = 2.8031e-10, No Iterations 8

  -ePotential iteration (5/200)

Solving for ePotential in region leftFluid
GAMG:  Solving for ePotential, Initial residual = 0.00139559, Final residual = 2.31408e-10, No Iterations 6

Solving for ePotential in region rightDielectric
GAMG:  Solving for ePotential, Initial residual = 0.00176443, Final residual = 9.36903e-10, No Iterations 7

  -ePotential iteration (6/200)

Solving for ePotential in region leftFluid
GAMG:  Solving for ePotential, Initial residual = 0.000740626, Final residual = 1.22806e-10, No Iterations 6

Solving for ePotential in region rightDielectric
GAMG:  Solving for ePotential, Initial residual = 0.000926163, Final residual = 4.9179e-10, No Iterations 7

  -ePotential iteration (7/200)

Solving for ePotential in region leftFluid
GAMG:  Solving for ePotential, Initial residual = 0.000392598, Final residual = 5.59502e-10, No Iterations 5

Solving for ePotential in region rightDielectric
GAMG:  Solving for ePotential, Initial residual = 0.000488123, Final residual = 2.59192e-10, No Iterations 7

  -ePotential iteration (8/200)

Solving for ePotential in region leftFluid
GAMG:  Solving for ePotential, Initial residual = 0.000207987, Final residual = 2.96419e-10, No Iterations 5

Solving for ePotential in region rightDielectric
GAMG:  Solving for ePotential, Initial residual = 0.000257806, Final residual = 8.87681e-10, No Iterations 6

  -ePotential iteration (9/200)

Solving for ePotential in region leftFluid
GAMG:  Solving for ePotential, Initial residual = 0.00011015, Final residual = 1.56985e-10, No Iterations 5

Solving for ePotential in region rightDielectric
GAMG:  Solving for ePotential, Initial residual = 0.000136315, Final residual = 4.69369e-10, No Iterations 6

  -ePotential iteration (10/200)

Solving for ePotential in region leftFluid
GAMG:  Solving for ePotential, Initial residual = 5.83261e-05, Final residual = 7.1079e-10, No Iterations 4

Solving for ePotential in region rightDielectric
GAMG:  Solving for ePotential, Initial residual = 7.21191e-05, Final residual = 2.48327e-10, No Iterations 6

  -ePotential iteration (11/200)

Solving for ePotential in region leftFluid
GAMG:  Solving for ePotential, Initial residual = 3.08822e-05, Final residual = 3.76468e-10, No Iterations 4

Solving for ePotential in region rightDielectric
GAMG:  Solving for ePotential, Initial residual = 3.81674e-05, Final residual = 8.67811e-10, No Iterations 5

  -ePotential iteration (12/200)

Solving for ePotential in region leftFluid
GAMG:  Solving for ePotential, Initial residual = 1.63502e-05, Final residual = 1.99327e-10, No Iterations 4

Solving for ePotential in region rightDielectric
GAMG:  Solving for ePotential, Initial residual = 2.0203e-05, Final residual = 4.59401e-10, No Iterations 5

  -ePotential iteration (13/200)

Solving for ePotential in region leftFluid
GAMG:  Solving for ePotential, Initial residual = 8.65629e-06, Final residual = 9.09297e-10, No Iterations 3

Solving for ePotential in region rightDielectric
GAMG:  Solving for ePotential, Initial residual = 1.06947e-05, Final residual = 2.43209e-10, No Iterations 5

  -ePotential iteration (14/200)

Solving for ePotential in region leftFluid
GAMG:  Solving for ePotential, Initial residual = 4.5836e-06, Final residual = 4.8293e-10, No Iterations 3

Solving for ePotential in region rightDielectric
GAMG:  Solving for ePotential, Initial residual = 5.66165e-06, Final residual = 8.55743e-10, No Iterations 4

  -ePotential iteration (15/200)

Solving for ePotential in region leftFluid
GAMG:  Solving for ePotential, Initial residual = 2.42657e-06, Final residual = 2.55768e-10, No Iterations 3

Solving for ePotential in region rightDielectric
GAMG:  Solving for ePotential, Initial residual = 2.99776e-06, Final residual = 4.534e-10, No Iterations 4

  -ePotential iteration (16/200)

Solving for ePotential in region leftFluid
GAMG:  Solving for ePotential, Initial residual = 1.2847e-06, Final residual = 1.35371e-10, No Iterations 3

Solving for ePotential in region rightDielectric
GAMG:  Solving for ePotential, Initial residual = 1.58708e-06, Final residual = 2.40077e-10, No Iterations 4

  -ePotential iteration (17/200)

Solving for ePotential in region leftFluid
GAMG:  Solving for ePotential, Initial residual = 6.80164e-07, Final residual = 6.45478e-10, No Iterations 2

Solving for ePotential in region rightDielectric
GAMG:  Solving for ePotential, Initial residual = 8.40285e-07, Final residual = 8.61178e-10, No Iterations 3

  -ePotential iteration (18/200)

Solving for ePotential in region leftFluid
GAMG:  Solving for ePotential, Initial residual = 3.60571e-07, Final residual = 3.51791e-10, No Iterations 2

Solving for ePotential in region rightDielectric
GAMG:  Solving for ePotential, Initial residual = 4.45332e-07, Final residual = 4.58333e-10, No Iterations 3

  -ePotential iteration (19/200)

Solving for ePotential in region leftFluid
GAMG:  Solving for ePotential, Initial residual = 1.90941e-07, Final residual = 1.86218e-10, No Iterations 2

Solving for ePotential in region rightDielectric
GAMG:  Solving for ePotential, Initial residual = 2.35815e-07, Final residual = 2.42888e-10, No Iterations 3

  -ePotential iteration (20/200)

Solving for ePotential in region leftFluid
GAMG:  Solving for ePotential, Initial residual = 1.01108e-07, Final residual = 9.85241e-11, No Iterations 2

Solving for ePotential in region rightDielectric
GAMG:  Solving for ePotential, Initial residual = 1.2487e-07, Final residual = 8.09759e-10, No Iterations 2

  -ePotential iteration (21/200)

Solving for ePotential in region leftFluid
GAMG:  Solving for ePotential, Initial residual = 5.34963e-08, Final residual = 6.63017e-10, No Iterations 1

Solving for ePotential in region rightDielectric
GAMG:  Solving for ePotential, Initial residual = 6.66713e-08, Final residual = 4.50017e-10, No Iterations 2

  -ePotential iteration (22/200)

Solving for ePotential in region leftFluid
GAMG:  Solving for ePotential, Initial residual = 2.89981e-08, Final residual = 4.12301e-10, No Iterations 1

Solving for ePotential in region rightDielectric
GAMG:  Solving for ePotential, Initial residual = 3.5302e-08, Final residual = 2.39012e-10, No Iterations 2

  -ePotential iteration (23/200)

Solving for ePotential in region leftFluid
GAMG:  Solving for ePotential, Initial residual = 1.54075e-08, Final residual = 2.26446e-10, No Iterations 1

Solving for ePotential in region rightDielectric
GAMG:  Solving for ePotential, Initial residual = 1.86736e-08, Final residual = 7.59898e-10, No Iterations 1

  -ePotential iteration (24/200)

Solving for ePotential in region leftFluid
GAMG:  Solving for ePotential, Initial residual = 8.12504e-09, Final residual = 1.23637e-10, No Iterations 1

Solving for ePotential in region rightDielectric
GAMG:  Solving for ePotential, Initial residual = 1.04319e-08, Final residual = 4.78847e-10, No Iterations 1

  -ePotential iteration (25/200)

Solving for ePotential in region leftFluid
GAMG:  Solving for ePotential, Initial residual = 4.31663e-09, Final residual = 6.49893e-11, No Iterations 1

Solving for ePotential in region rightDielectric
GAMG:  Solving for ePotential, Initial residual = 5.57982e-09, Final residual = 2.74463e-10, No Iterations 1

  -ePotential iteration (26/200)

Solving for ePotential in region leftFluid
GAMG:  Solving for ePotential, Initial residual = 2.29064e-09, Final residual = 3.3492e-11, No Iterations 1

Solving for ePotential in region rightDielectric
GAMG:  Solving for ePotential, Initial residual = 2.97339e-09, Final residual = 1.53069e-10, No Iterations 1

  -ePotential iteration (27/200)

Solving for ePotential in region leftFluid
GAMG:  Solving for ePotential, Initial residual = 1.21483e-09, Final residual = 1.71906e-11, No Iterations 1

Solving for ePotential in region rightDielectric
GAMG:  Solving for ePotential, Initial residual = 1.58234e-09, Final residual = 8.42686e-11, No Iterations 1

  -ePotential iteration (28/200)

Solving for ePotential in region leftFluid
GAMG:  Solving for ePotential, Initial residual = 6.44146e-10, Final residual = 6.44146e-10, No Iterations 0

Solving for ePotential in region rightDielectric
GAMG:  Solving for ePotential, Initial residual = 8.42686e-11, Final residual = 8.42686e-11, No Iterations 0

>>> ePotential converged in 28 iterations.
ExecutionTime = 0.03 s  ClockTime = 0 s

Time = 5

Solving for ePotential in non-coupled regions (segregate)

  -ePotential iteration (1/200)

Solving for ePotential in region leftFluid
GAMG:  Solving for ePotential, Initial residual = 0.138462, Final residual = 2.23799e-10, No Iterations 8

Solving for ePotential in region rightDielectric
GAMG:  Solving for ePotential, Initial residual = 0.0215827, Final residual = 2.80728e-10, No Iterations 9

  -ePotential iteration (2/200)

Solving for ePotential in region leftFluid
GAMG:  Solving for ePotential, Initial residual = 0.00735895, Final residual = 1.41246e-10, No Iterations 7

Solving for ePotential in region rightDielectric
GAMG:  Solving for ePotential, Initial residual = 0.0103409, Final residual = 8.55636e-10, No Iterations 8

  -ePotential iteration (3/200)

Solving for ePotential in region leftFluid
GAMG:  Solving for ePotential, Initial residual = 0.00394602, Final residual = 6.54303e-10, No Iterations 6

Solving for ePotential in region rightDielectric
GAMG:  Solving for ePotential, Initial residual = 0.00521247, Final residual = 4.31296e-10, No Iterations 8

  -ePotential iteration (4/200)

Solving for ePotential in region leftFluid
GAMG:  Solving for ePotential, Initial residual = 0.00210339, Final residual = 3.48772e-10, No Iterations 6

Solving for ePotential in region rightDielectric
GAMG:  Solving for ePotential, Initial residual = 0.00269133, Final residual = 2.22689e-10, No Iterations 8

  -ePotential iteration (5/200)

Solving for ePotential in region leftFluid
GAMG:  Solving for ePotential, Initial residual = 0.00111762, Final residual = 1.85316e-10, No Iterations 6

Solving for ePotential in region rightDielectric
GAMG:  Solving for ePotential, Initial residual = 0.00140641, Final residual = 7.468e-10, No Iterations 7

  -ePotential iteration (6/200)

Solving for ePotential in region leftFluid
GAMG:  Solving for ePotential, Initial residual = 0.000592823, Final residual = 8.4485e-10, No Iterations 5

Solving for ePotential in region rightDielectric
GAMG:  Solving for ePotential, Initial residual = 0.000739514, Final residual = 3.9268e-10, No Iterations 7

  -ePotential iteration (7/200)

Solving for ePotential in region leftFluid
GAMG:  Solving for ePotential, Initial residual = 0.00031417, Final residual = 4.47748e-10, No Iterations 5

Solving for ePotential in region rightDielectric
GAMG:  Solving for ePotential, Initial residual = 0.000390105, Final residual = 2.07145e-10, No Iterations 7

  -ePotential iteration (8/200)

Solving for ePotential in region leftFluid
GAMG:  Solving for ePotential, Initial residual = 0.000166415, Final residual = 2.37172e-10, No Iterations 5

Solving for ePotential in region rightDielectric
GAMG:  Solving for ePotential, Initial residual = 0.000206135, Final residual = 7.09766e-10, No Iterations 6

  -ePotential iteration (9/200)

Solving for ePotential in region leftFluid
GAMG:  Solving for ePotential, Initial residual = 8.81275e-05, Final residual = 1.25598e-10, No Iterations 5

Solving for ePotential in region rightDielectric
GAMG:  Solving for ePotential, Initial residual = 0.000109021, Final residual = 3.7539e-10, No Iterations 6

  -ePotential iteration (10/200)

Solving for ePotential in region leftFluid
GAMG:  Solving for ePotential, Initial residual = 4.66628e-05, Final residual = 5.68657e-10, No Iterations 4

Solving for ePotential in region rightDielectric
GAMG:  Solving for ePotential, Initial residual = 5.76867e-05, Final residual = 1.98632e-10, No Iterations 6

  -ePotential iteration (11/200)

Solving for ePotential in region leftFluid
GAMG:  Solving for ePotential, Initial residual = 2.47063e-05, Final residual = 3.01182e-10, No Iterations 4

Solving for ePotential in region rightDielectric
GAMG:  Solving for ePotential, Initial residual = 3.05315e-05, Final residual = 6.94194e-10, No Iterations 5

  -ePotential iteration (12/200)

Solving for ePotential in region leftFluid
GAMG:  Solving for ePotential, Initial residual = 1.30803e-05, Final residual = 1.59464e-10, No Iterations 4

Solving for ePotential in region rightDielectric
GAMG:  Solving for ePotential, Initial residual = 1.61617e-05, Final residual = 3.67505e-10, No Iterations 5

  -ePotential iteration (13/200)

Solving for ePotential in region leftFluid
GAMG:  Solving for ePotential, Initial residual = 6.92508e-06, Final residual = 7.27443e-10, No Iterations 3

Solving for ePotential in region rightDielectric
GAMG:  Solving for ePotential, Initial residual = 8.55558e-06, Final residual = 1.94563e-10, No Iterations 5

  -ePotential iteration (14/200)

Solving for ePotential in region leftFluid
GAMG:  Solving for ePotential, Initial residual = 3.66689e-06, Final residual = 3.86345e-10, No Iterations 3

Solving for ePotential in region rightDielectric
GAMG:  Solving for ePotential, Initial residual = 4.52926e-06, Final residual = 6.84586e-10, No Iterations 4

  -ePotential iteration (15/200)

Solving for ePotential in region leftFluid
GAMG:  Solving for ePotential, Initial residual = 1.94126e-06, Final residual = 2.04615e-10, No Iterations 3

Solving for ePotential in region rightDielectric
GAMG:  Solving for ePotential, Initial residual = 2.39819e-06, Final residual = 3.62718e-10, No Iterations 4

  -ePotential iteration (16/200)

Solving for ePotential in region leftFluid
GAMG:  Solving for ePotential, Initial residual = 1.02776e-06, Final residual = 9.7555e-10, No Iterations 2

Solving for ePotential in region rightDielectric
GAMG:  Solving for ePotential, Initial residual = 1.26972e-06, Final residual = 1.9219e-10, No Iterations 4

  -ePotential iteration (17/200)

Solving for ePotential in region leftFluid
GAMG:  Solving for ePotential, Initial residual = 5.44978e-07, Final residual = 5.30743e-10, No Iterations 2

Solving for ePotential in region rightDielectric
GAMG:  Solving for ePotential, Initial residual = 6.72198e-07, Final residual = 6.88414e-10, No Iterations 3

  -ePotential iteration (18/200)

Solving for ePotential in region leftFluid
GAMG:  Solving for ePotential, Initial residual = 2.88458e-07, Final residual = 2.8201e-10, No Iterations 2

Solving for ePotential in region rightDielectric
GAMG:  Solving for ePotential, Initial residual = 3.56249e-07, Final residual = 3.66459e-10, No Iterations 3

  -ePotential iteration (19/200)

Solving for ePotential in region leftFluid
GAMG:  Solving for ePotential, Initial residual = 1.52746e-07, Final residual = 1.49092e-10, No Iterations 2

Solving for ePotential in region rightDielectric
GAMG:  Solving for ePotential, Initial residual = 1.88644e-07, Final residual = 1.94232e-10, No Iterations 3

  -ePotential iteration (20/200)

Solving for ePotential in region leftFluid
GAMG:  Solving for ePotential, Initial residual = 8.08829e-08, Final residual = 9.97547e-10, No Iterations 1

Solving for ePotential in region rightDielectric
GAMG:  Solving for ePotential, Initial residual = 1.0007e-07, Final residual = 6.53347e-10, No Iterations 2

  -ePotential iteration (21/200)

Solving for ePotential in region leftFluid
GAMG:  Solving for ePotential, Initial residual = 4.37773e-08, Final residual = 6.25202e-10, No Iterations 1

Solving for ePotential in region rightDielectric
GAMG:  Solving for ePotential, Initial residual = 5.3276e-08, Final residual = 3.57288e-10, No Iterations 2

  -ePotential iteration (22/200)

Solving for ePotential in region leftFluid
GAMG:  Solving for ePotential, Initial residual = 2.32609e-08, Final residual = 3.43836e-10, No Iterations 1

Solving for ePotential in region rightDielectric
GAMG:  Solving for ePotential, Initial residual = 2.81867e-08, Final residual = 1.89486e-10, No Iterations 2

  -ePotential iteration (23/200)

Solving for ePotential in region leftFluid
GAMG:  Solving for ePotential, Initial residual = 1.23163e-08, Final residual = 1.83634e-10, No Iterations 1

Solving for ePotential in region rightDielectric
GAMG:  Solving for ePotential, Initial residual = 1.49074e-08, Final residual = 6.03577e-10, No Iterations 1

  -ePotential iteration (24/200)

Solving for ePotential in region leftFluid
GAMG:  Solving for ePotential, Initial residual = 6.48918e-09, Final residual = 9.94116e-11, No Iterations 1

Solving for ePotential in region rightDielectric
GAMG:  Solving for ePotential, Initial residual = 8.32627e-09, Final residual = 3.80661e-10, No Iterations 1

  -ePotential iteration (25/200)

Solving for ePotential in region leftFluid
GAMG:  Solving for ePotential, Initial residual = 3.44672e-09, Final residual = 5.21113e-11, No Iterations 1

Solving for ePotential in region rightDielectric
GAMG:  Solving for ePotential, Initial residual = 4.45358e-09, Final residual = 2.18362e-10, No Iterations 1

  -ePotential iteration (26/200)

Solving for ePotential in region leftFluid
GAMG:  Solving for ePotential, Initial residual = 1.82889e-09, Final residual = 2.68244e-11, No Iterations 1

Solving for ePotential in region rightDielectric
GAMG:  Solving for ePotential, Initial residual = 2.3733e-09, Final residual = 1.21872e-10, No Iterations 1

  -ePotential iteration (27/200)

Solving for ePotential in region leftFluid
GAMG:  Solving for ePotential, Initial residual = 9.69921e-10, Final residual = 9.69921e-10, No Iterations 0

Solving for ePotential in region rightDielectric
GAMG:  Solving for ePotential, Initial residual = 1.21872e-10, Final residual = 1.21872e-10, No Iterations 0

>>> ePotential converged in 27 iterations.
ExecutionTime = 0.03 s  ClockTime = 0 s

Time = 6

Solving for ePotential in non-coupled regions (segregate)

  -ePotential iteration (1/200)

Solving for ePotential in region leftFluid
GAMG:  Solving for ePotential, Initial residual = 0.113924, Final residual = 1.84139e-10, No Iterations 8

Solving for ePotential in region rightDielectric
GAMG:  Solving for ePotential, Initial residual = 0.017341, Final residual = 2.25556e-10, No Iterations 9

  -ePotential iteration (2/200)

Solving for ePotential in region leftFluid
GAMG:  Solving for ePotential, Initial residual = 0.00616016, Final residual = 1.18237e-10, No Iterations 7

Solving for ePotential in region rightDielectric
GAMG:  Solving for ePotential, Initial residual = 0.0084666, Final residual = 7.00554e-10, No Iterations 8

  -ePotential iteration (3/200)

Solving for ePotential in region leftFluid
GAMG:  Solving for ePotential, Initial residual = 0.0032963, Final residual = 5.4657e-10, No Iterations 6

Solving for ePotential in region rightDielectric
GAMG:  Solving for ePotential, Initial residual = 0.00430508, Final residual = 3.56216e-10, No Iterations 8

  -ePotential iteration (4/200)

Solving for ePotential in region leftFluid
GAMG:  Solving for ePotential, Initial residual = 0.00175508, Final residual = 2.91017e-10, No Iterations 6

Solving for ePotential in region rightDielectric
GAMG:  Solving for ePotential, Initial residual = 0.00223242, Final residual = 1.84718e-10, No Iterations 8

  -ePotential iteration (5/200)

Solving for ePotential in region leftFluid
GAMG:  Solving for ePotential, Initial residual = 0.000931984, Final residual = 1.54536e-10, No Iterations 6

Solving for ePotential in region rightDielectric
GAMG:  Solving for ePotential, Initial residual = 0.00116918, Final residual = 6.20829e-10, No Iterations 7

  -ePotential iteration (6/200)

Solving for ePotential in region leftFluid
GAMG:  Solving for ePotential, Initial residual = 0.000494198, Final residual = 7.04296e-10, No Iterations 5

Solving for ePotential in region rightDielectric
GAMG:  Solving for ePotential, Initial residual = 0.000615478, Final residual = 3.26817e-10, No Iterations 7

  -ePotential iteration (7/200)

Solving for ePotential in region leftFluid
GAMG:  Solving for ePotential, Initial residual = 0.000261858, Final residual = 3.73195e-10, No Iterations 5

Solving for ePotential in region rightDielectric
GAMG:  Solving for ePotential, Initial residual = 0.000324869, Final residual = 1.72505e-10, No Iterations 7

  -ePotential iteration (8/200)

Solving for ePotential in region leftFluid
GAMG:  Solving for ePotential, Initial residual = 0.000138694, Final residual = 1.97663e-10, No Iterations 5

Solving for ePotential in region rightDielectric
GAMG:  Solving for ePotential, Initial residual = 0.000171718, Final residual = 5.91262e-10, No Iterations 6

  -ePotential iteration (9/200)

Solving for ePotential in region leftFluid
GAMG:  Solving for ePotential, Initial residual = 7.34435e-05, Final residual = 8.95027e-10, No Iterations 4

Solving for ePotential in region rightDielectric
GAMG:  Solving for ePotential, Initial residual = 9.08342e-05, Final residual = 3.12768e-10, No Iterations 6

  -ePotential iteration (10/200)

Solving for ePotential in region leftFluid
GAMG:  Solving for ePotential, Initial residual = 3.88876e-05, Final residual = 4.74059e-10, No Iterations 4

Solving for ePotential in region rightDielectric
GAMG:  Solving for ePotential, Initial residual = 4.80675e-05, Final residual = 1.65509e-10, No Iterations 6

  -ePotential iteration (11/200)

Solving for ePotential in region leftFluid
GAMG:  Solving for ePotential, Initial residual = 2.05889e-05, Final residual = 2.50992e-10, No Iterations 4

Solving for ePotential in region rightDielectric
GAMG:  Solving for ePotential, Initial residual = 2.54416e-05, Final residual = 5.78462e-10, No Iterations 5

  -ePotential iteration (12/200)

Solving for ePotential in region leftFluid
GAMG:  Solving for ePotential, Initial residual = 1.09004e-05, Final residual = 1.32888e-10, No Iterations 4

Solving for ePotential in region rightDielectric
GAMG:  Solving for ePotential, Initial residual = 1.34677e-05, Final residual = 3.06245e-10, No Iterations 5

  -ePotential iteration (13/200)

Solving for ePotential in region leftFluid
GAMG:  Solving for ePotential, Initial residual = 5.77093e-06, Final residual = 6.06207e-10, No Iterations 3

Solving for ePotential in region rightDielectric
GAMG:  Solving for ePotential, Initial residual = 7.12955e-06, Final residual = 1.62133e-10, No Iterations 5

  -ePotential iteration (14/200)

Solving for ePotential in region leftFluid
GAMG:  Solving for ePotential, Initial residual = 3.05575e-06, Final residual = 3.21956e-10, No Iterations 3

Solving for ePotential in region rightDielectric
GAMG:  Solving for ePotential, Initial residual = 3.77436e-06, Final residual = 5.70484e-10, No Iterations 4

  -ePotential iteration (15/200)

Solving for ePotential in region leftFluid
GAMG:  Solving for ePotential, Initial residual = 1.61772e-06, Final residual = 1.70513e-10, No Iterations 3

Solving for ePotential in region rightDielectric
GAMG:  Solving for ePotential, Initial residual = 1.99849e-06, Final residual = 3.02263e-10, No Iterations 4

  -ePotential iteration (16/200)

Solving for ePotential in region leftFluid
GAMG:  Solving for ePotential, Initial residual = 8.56471e-07, Final residual = 8.1296e-10, No Iterations 2

Solving for ePotential in region rightDielectric
GAMG:  Solving for ePotential, Initial residual = 1.0581e-06, Final residual = 1.60158e-10, No Iterations 4

  -ePotential iteration (17/200)

Solving for ePotential in region leftFluid
GAMG:  Solving for ePotential, Initial residual = 4.54148e-07, Final residual = 4.42286e-10, No Iterations 2

Solving for ePotential in region rightDielectric
GAMG:  Solving for ePotential, Initial residual = 5.60165e-07, Final residual = 5.73677e-10, No Iterations 3

  -ePotential iteration (18/200)

Solving for ePotential in region leftFluid
GAMG:  Solving for ePotential, Initial residual = 2.40382e-07, Final residual = 2.35008e-10, No Iterations 2

Solving for ePotential in region rightDielectric
GAMG:  Solving for ePotential, Initial residual = 2.96874e-07, Final residual = 3.05383e-10, No Iterations 3

  -ePotential iteration (19/200)

Solving for ePotential in region leftFluid
GAMG:  Solving for ePotential, Initial residual = 1.27289e-07, Final residual = 1.24244e-10, No Iterations 2

Solving for ePotential in region rightDielectric
GAMG:  Solving for ePotential, Initial residual = 1.57203e-07, Final residual = 1.6186e-10, No Iterations 3

  -ePotential iteration (20/200)

Solving for ePotential in region leftFluid
GAMG:  Solving for ePotential, Initial residual = 6.74025e-08, Final residual = 8.3129e-10, No Iterations 1

Solving for ePotential in region rightDielectric
GAMG:  Solving for ePotential, Initial residual = 8.33916e-08, Final residual = 5.44456e-10, No Iterations 2

  -ePotential iteration (21/200)

Solving for ePotential in region leftFluid
GAMG:  Solving for ePotential, Initial residual = 3.64811e-08, Final residual = 5.21002e-10, No Iterations 1

Solving for ePotential in region rightDielectric
GAMG:  Solving for ePotential, Initial residual = 4.43967e-08, Final residual = 2.9774e-10, No Iterations 2

  -ePotential iteration (22/200)

Solving for ePotential in region leftFluid
GAMG:  Solving for ePotential, Initial residual = 1.93841e-08, Final residual = 2.8653e-10, No Iterations 1

Solving for ePotential in region rightDielectric
GAMG:  Solving for ePotential, Initial residual = 2.34889e-08, Final residual = 9.50344e-10, No Iterations 1

  -ePotential iteration (23/200)

Solving for ePotential in region leftFluid
GAMG:  Solving for ePotential, Initial residual = 1.02221e-08, Final residual = 1.56256e-10, No Iterations 1

Solving for ePotential in region rightDielectric
GAMG:  Solving for ePotential, Initial residual = 1.31196e-08, Final residual = 5.99545e-10, No Iterations 1

  -ePotential iteration (24/200)

Solving for ePotential in region leftFluid
GAMG:  Solving for ePotential, Initial residual = 5.43075e-09, Final residual = 8.20614e-11, No Iterations 1

Solving for ePotential in region rightDielectric
GAMG:  Solving for ePotential, Initial residual = 7.01757e-09, Final residual = 3.43978e-10, No Iterations 1

  -ePotential iteration (25/200)

Solving for ePotential in region leftFluid
GAMG:  Solving for ePotential, Initial residual = 2.88182e-09, Final residual = 4.22619e-11, No Iterations 1

Solving for ePotential in region rightDielectric
GAMG:  Solving for ePotential, Initial residual = 3.73969e-09, Final residual = 1.92e-10, No Iterations 1

  -ePotential iteration (26/200)

Solving for ePotential in region leftFluid
GAMG:  Solving for ePotential, Initial residual = 1.52836e-09, Final residual = 2.1682e-11, No Iterations 1

Solving for ePotential in region rightDielectric
GAMG:  Solving for ePotential, Initial residual = 1.99023e-09, Final residual = 1.05766e-10, No Iterations 1

  -ePotential iteration (27/200)

Solving for ePotential in region leftFluid
GAMG:  Solving for ePotential, Initial residual = 8.10381e-10, Final residual = 8.10381e-10, No Iterations 0

Solving for ePotential in region rightDielectric
GAMG:  Solving for ePotential, Initial residual = 1.05766e-10, Final residual = 1.05766e-10, No Iterations 0

>>> ePotential converged in 27 iterations.
ExecutionTime = 0.04 s  ClockTime = 0 s

Time = 7

Solving for ePotential in non-coupled regions (segregate)

  -ePotential iteration (1/200)

Solving for ePotential in region leftFluid
GAMG:  Solving for ePotential, Initial residual = 0.0967742, Final residual = 1.56419e-10, No Iterations 8

Solving for ePotential in region rightDielectric
GAMG:  Solving for ePotential, Initial residual = 0.0144928, Final residual = 1.88508e-10, No Iterations 9

  -ePotential iteration (2/200)

Solving for ePotential in region leftFluid
GAMG:  Solving for ePotential, Initial residual = 0.00529723, Final residual = 8.78351e-10, No Iterations 6

Solving for ePotential in region rightDielectric
GAMG:  Solving for ePotential, Initial residual = 0.00716751, Final residual = 5.93063e-10, No Iterations 8

  -ePotential iteration (3/200)

Solving for ePotential in region leftFluid
GAMG:  Solving for ePotential, Initial residual = 0.00283029, Final residual = 4.69301e-10, No Iterations 6

Solving for ePotential in region rightDielectric
GAMG:  Solving for ePotential, Initial residual = 0.00366676, Final residual = 3.034e-10, No Iterations 8

  -ePotential iteration (4/200)

Solving for ePotential in region leftFluid
GAMG:  Solving for ePotential, Initial residual = 0.00150574, Final residual = 2.49673e-10, No Iterations 6

Solving for ePotential in region rightDielectric
GAMG:  Solving for ePotential, Initial residual = 0.00190722, Final residual = 1.5781e-10, No Iterations 8

  -ePotential iteration (5/200)

Solving for ePotential in region leftFluid
GAMG:  Solving for ePotential, Initial residual = 0.000799234, Final residual = 1.32524e-10, No Iterations 6

Solving for ePotential in region rightDielectric
GAMG:  Solving for ePotential, Initial residual = 0.00100043, Final residual = 5.31223e-10, No Iterations 7

  -ePotential iteration (6/200)

Solving for ePotential in region leftFluid
GAMG:  Solving for ePotential, Initial residual = 0.000423708, Final residual = 6.03839e-10, No Iterations 5

Solving for ePotential in region rightDielectric
GAMG:  Solving for ePotential, Initial residual = 0.000527074, Final residual = 2.79875e-10, No Iterations 7

  -ePotential iteration (7/200)

Solving for ePotential in region leftFluid
GAMG:  Solving for ePotential, Initial residual = 0.000224481, Final residual = 3.19925e-10, No Iterations 5

Solving for ePotential in region rightDielectric
GAMG:  Solving for ePotential, Initial residual = 0.000278326, Final residual = 9.58334e-10, No Iterations 6

  -ePotential iteration (8/200)

Solving for ePotential in region leftFluid
GAMG:  Solving for ePotential, Initial residual = 0.000118889, Final residual = 1.69439e-10, No Iterations 5

Solving for ePotential in region rightDielectric
GAMG:  Solving for ePotential, Initial residual = 0.00014715, Final residual = 5.06677e-10, No Iterations 6

  -ePotential iteration (9/200)

Solving for ePotential in region leftFluid
GAMG:  Solving for ePotential, Initial residual = 6.2954e-05, Final residual = 7.67189e-10, No Iterations 4

Solving for ePotential in region rightDielectric
GAMG:  Solving for ePotential, Initial residual = 7.78475e-05, Final residual = 2.68052e-10, No Iterations 6

  -ePotential iteration (10/200)

Solving for ePotential in region leftFluid
GAMG:  Solving for ePotential, Initial residual = 3.33329e-05, Final residual = 4.06343e-10, No Iterations 4

Solving for ePotential in region rightDielectric
GAMG:  Solving for ePotential, Initial residual = 4.11978e-05, Final residual = 9.36715e-10, No Iterations 5

  -ePotential iteration (11/200)

Solving for ePotential in region leftFluid
GAMG:  Solving for ePotential, Initial residual = 1.76478e-05, Final residual = 2.15146e-10, No Iterations 4

Solving for ePotential in region rightDielectric
GAMG:  Solving for ePotential, Initial residual = 2.18068e-05, Final residual = 4.95869e-10, No Iterations 5

  -ePotential iteration (12/200)

Solving for ePotential in region leftFluid
GAMG:  Solving for ePotential, Initial residual = 9.34328e-06, Final residual = 9.81461e-10, No Iterations 3

Solving for ePotential in region rightDielectric
GAMG:  Solving for ePotential, Initial residual = 1.15436e-05, Final residual = 2.62514e-10, No Iterations 5

  -ePotential iteration (13/200)

Solving for ePotential in region leftFluid
GAMG:  Solving for ePotential, Initial residual = 4.94737e-06, Final residual = 5.21257e-10, No Iterations 3

Solving for ePotential in region rightDielectric
GAMG:  Solving for ePotential, Initial residual = 6.11101e-06, Final residual = 9.23663e-10, No Iterations 4

  -ePotential iteration (14/200)

Solving for ePotential in region leftFluid
GAMG:  Solving for ePotential, Initial residual = 2.61915e-06, Final residual = 2.76067e-10, No Iterations 3

Solving for ePotential in region rightDielectric
GAMG:  Solving for ePotential, Initial residual = 3.23568e-06, Final residual = 4.89385e-10, No Iterations 4

  -ePotential iteration (15/200)

Solving for ePotential in region leftFluid
GAMG:  Solving for ePotential, Initial residual = 1.38666e-06, Final residual = 1.46115e-10, No Iterations 3

Solving for ePotential in region rightDielectric
GAMG:  Solving for ePotential, Initial residual = 1.71304e-06, Final residual = 2.59131e-10, No Iterations 4

  -ePotential iteration (16/200)

Solving for ePotential in region leftFluid
GAMG:  Solving for ePotential, Initial residual = 7.34145e-07, Final residual = 6.96706e-10, No Iterations 2

Solving for ePotential in region rightDielectric
GAMG:  Solving for ePotential, Initial residual = 9.06975e-07, Final residual = 9.29526e-10, No Iterations 3

  -ePotential iteration (17/200)

Solving for ePotential in region leftFluid
GAMG:  Solving for ePotential, Initial residual = 3.89188e-07, Final residual = 3.79711e-10, No Iterations 2

Solving for ePotential in region rightDielectric
GAMG:  Solving for ePotential, Initial residual = 4.80676e-07, Final residual = 4.94709e-10, No Iterations 3

  -ePotential iteration (18/200)

Solving for ePotential in region leftFluid
GAMG:  Solving for ePotential, Initial residual = 2.06095e-07, Final residual = 2.00997e-10, No Iterations 2

Solving for ePotential in region rightDielectric
GAMG:  Solving for ePotential, Initial residual = 2.54531e-07, Final residual = 2.62165e-10, No Iterations 3

  -ePotential iteration (19/200)

Solving for ePotential in region leftFluid
GAMG:  Solving for ePotential, Initial residual = 1.09132e-07, Final residual = 1.06344e-10, No Iterations 2

Solving for ePotential in region rightDielectric
GAMG:  Solving for ePotential, Initial residual = 1.3478e-07, Final residual = 8.74025e-10, No Iterations 2

  -ePotential iteration (20/200)

Solving for ePotential in region leftFluid
GAMG:  Solving for ePotential, Initial residual = 5.7742e-08, Final residual = 7.15638e-10, No Iterations 1

Solving for ePotential in region rightDielectric
GAMG:  Solving for ePotential, Initial residual = 7.19626e-08, Final residual = 4.85732e-10, No Iterations 2

  -ePotential iteration (21/200)

Solving for ePotential in region leftFluid
GAMG:  Solving for ePotential, Initial residual = 3.12996e-08, Final residual = 4.45024e-10, No Iterations 1

Solving for ePotential in region rightDielectric
GAMG:  Solving for ePotential, Initial residual = 3.81037e-08, Final residual = 2.57981e-10, No Iterations 2

  -ePotential iteration (22/200)

Solving for ePotential in region leftFluid
GAMG:  Solving for ePotential, Initial residual = 1.66303e-08, Final residual = 2.44418e-10, No Iterations 1

Solving for ePotential in region rightDielectric
GAMG:  Solving for ePotential, Initial residual = 2.01557e-08, Final residual = 8.20207e-10, No Iterations 1

  -ePotential iteration (23/200)

Solving for ePotential in region leftFluid
GAMG:  Solving for ePotential, Initial residual = 8.76988e-09, Final residual = 1.3345e-10, No Iterations 1

Solving for ePotential in region rightDielectric
GAMG:  Solving for ePotential, Initial residual = 1.12598e-08, Final residual = 5.16851e-10, No Iterations 1

  -ePotential iteration (24/200)

Solving for ePotential in region leftFluid
GAMG:  Solving for ePotential, Initial residual = 4.65922e-09, Final residual = 7.01471e-11, No Iterations 1

Solving for ePotential in region rightDielectric
GAMG:  Solving for ePotential, Initial residual = 6.02266e-09, Final residual = 2.96246e-10, No Iterations 1

  -ePotential iteration (25/200)

Solving for ePotential in region leftFluid
GAMG:  Solving for ePotential, Initial residual = 2.47243e-09, Final residual = 3.61502e-11, No Iterations 1

Solving for ePotential in region rightDielectric
GAMG:  Solving for ePotential, Initial residual = 3.20937e-09, Final residual = 1.65218e-10, No Iterations 1

  -ePotential iteration (26/200)

Solving for ePotential in region leftFluid
GAMG:  Solving for ePotential, Initial residual = 1.31125e-09, Final residual = 1.85549e-11, No Iterations 1

Solving for ePotential in region rightDielectric
GAMG:  Solving for ePotential, Initial residual = 1.70792e-09, Final residual = 9.09565e-11, No Iterations 1

  -ePotential iteration (27/200)

Solving for ePotential in region leftFluid
GAMG:  Solving for ePotential, Initial residual = 6.95268e-10, Final residual = 6.95268e-10, No Iterations 0

Solving for ePotential in region rightDielectric
GAMG:  Solving for ePotential, Initial residual = 9.09565e-11, Final residual = 9.09565e-11, No Iterations 0

>>> ePotential converged in 27 iterations.
ExecutionTime = 0.04 s  ClockTime = 0 s

Time = 8

Solving for ePotential in non-coupled regions (segregate)

  -ePotential iteration (1/200)

Solving for ePotential in region leftFluid
GAMG:  Solving for ePotential, Initial residual = 0.0841121, Final residual = 1.35953e-10, No Iterations 8

Solving for ePotential in region rightDielectric
GAMG:  Solving for ePotential, Initial residual = 0.0124481, Final residual = 1.61914e-10, No Iterations 9

  -ePotential iteration (2/200)

Solving for ePotential in region leftFluid
GAMG:  Solving for ePotential, Initial residual = 0.00464636, Final residual = 7.70427e-10, No Iterations 6

Solving for ePotential in region rightDielectric
GAMG:  Solving for ePotential, Initial residual = 0.00621404, Final residual = 5.1417e-10, No Iterations 8

  -ePotential iteration (3/200)

Solving for ePotential in region leftFluid
GAMG:  Solving for ePotential, Initial residual = 0.00247972, Final residual = 4.11172e-10, No Iterations 6

Solving for ePotential in region rightDielectric
GAMG:  Solving for ePotential, Initial residual = 0.00319329, Final residual = 2.64224e-10, No Iterations 8

  -ePotential iteration (4/200)

Solving for ePotential in region leftFluid
GAMG:  Solving for ePotential, Initial residual = 0.00131843, Final residual = 2.18615e-10, No Iterations 6

Solving for ePotential in region rightDielectric
GAMG:  Solving for ePotential, Initial residual = 0.00166472, Final residual = 8.83958e-10, No Iterations 7

  -ePotential iteration (5/200)

Solving for ePotential in region leftFluid
GAMG:  Solving for ePotential, Initial residual = 0.000699586, Final residual = 9.97001e-10, No Iterations 5

Solving for ePotential in region rightDielectric
GAMG:  Solving for ePotential, Initial residual = 0.000874244, Final residual = 4.64222e-10, No Iterations 7

  -ePotential iteration (6/200)

Solving for ePotential in region leftFluid
GAMG:  Solving for ePotential, Initial residual = 0.000370817, Final residual = 5.28481e-10, No Iterations 5

Solving for ePotential in region rightDielectric
GAMG:  Solving for ePotential, Initial residual = 0.000460876, Final residual = 2.44724e-10, No Iterations 7

  -ePotential iteration (7/200)

Solving for ePotential in region leftFluid
GAMG:  Solving for ePotential, Initial residual = 0.000196441, Final residual = 2.79964e-10, No Iterations 5

Solving for ePotential in region rightDielectric
GAMG:  Solving for ePotential, Initial residual = 0.000243448, Final residual = 8.38241e-10, No Iterations 6

  -ePotential iteration (8/200)

Solving for ePotential in region leftFluid
GAMG:  Solving for ePotential, Initial residual = 0.000104033, Final residual = 1.48267e-10, No Iterations 5

Solving for ePotential in region rightDielectric
GAMG:  Solving for ePotential, Initial residual = 0.000128732, Final residual = 4.43258e-10, No Iterations 6

  -ePotential iteration (9/200)

Solving for ePotential in region leftFluid
GAMG:  Solving for ePotential, Initial residual = 5.50864e-05, Final residual = 6.7131e-10, No Iterations 4

Solving for ePotential in region rightDielectric
GAMG:  Solving for ePotential, Initial residual = 6.81097e-05, Final residual = 2.34522e-10, No Iterations 6

  -ePotential iteration (10/200)

Solving for ePotential in region leftFluid
GAMG:  Solving for ePotential, Initial residual = 2.91667e-05, Final residual = 3.55556e-10, No Iterations 4

Solving for ePotential in region rightDielectric
GAMG:  Solving for ePotential, Initial residual = 3.60462e-05, Final residual = 8.19582e-10, No Iterations 5

  -ePotential iteration (11/200)

Solving for ePotential in region leftFluid
GAMG:  Solving for ePotential, Initial residual = 1.54419e-05, Final residual = 1.88254e-10, No Iterations 4

Solving for ePotential in region rightDielectric
GAMG:  Solving for ePotential, Initial residual = 1.90804e-05, Final residual = 4.33873e-10, No Iterations 5

  -ePotential iteration (12/200)

Solving for ePotential in region leftFluid
GAMG:  Solving for ePotential, Initial residual = 8.1754e-06, Final residual = 8.58782e-10, No Iterations 3

Solving for ePotential in region rightDielectric
GAMG:  Solving for ePotential, Initial residual = 1.01005e-05, Final residual = 2.29696e-10, No Iterations 5

  -ePotential iteration (13/200)

Solving for ePotential in region leftFluid
GAMG:  Solving for ePotential, Initial residual = 4.32896e-06, Final residual = 4.56101e-10, No Iterations 3

Solving for ePotential in region rightDielectric
GAMG:  Solving for ePotential, Initial residual = 5.34709e-06, Final residual = 8.08199e-10, No Iterations 4

  -ePotential iteration (14/200)

Solving for ePotential in region leftFluid
GAMG:  Solving for ePotential, Initial residual = 2.29176e-06, Final residual = 2.41559e-10, No Iterations 3

Solving for ePotential in region rightDielectric
GAMG:  Solving for ePotential, Initial residual = 2.83121e-06, Final residual = 4.2821e-10, No Iterations 4

  -ePotential iteration (15/200)

Solving for ePotential in region leftFluid
GAMG:  Solving for ePotential, Initial residual = 1.21333e-06, Final residual = 1.27851e-10, No Iterations 3

Solving for ePotential in region rightDielectric
GAMG:  Solving for ePotential, Initial residual = 1.49891e-06, Final residual = 2.2674e-10, No Iterations 4

  -ePotential iteration (16/200)

Solving for ePotential in region leftFluid
GAMG:  Solving for ePotential, Initial residual = 6.42377e-07, Final residual = 6.09618e-10, No Iterations 2

Solving for ePotential in region rightDielectric
GAMG:  Solving for ePotential, Initial residual = 7.93603e-07, Final residual = 8.13335e-10, No Iterations 3

  -ePotential iteration (17/200)

Solving for ePotential in region leftFluid
GAMG:  Solving for ePotential, Initial residual = 3.40539e-07, Final residual = 3.32247e-10, No Iterations 2

Solving for ePotential in region rightDielectric
GAMG:  Solving for ePotential, Initial residual = 4.20591e-07, Final residual = 4.3287e-10, No Iterations 3

  -ePotential iteration (18/200)

Solving for ePotential in region leftFluid
GAMG:  Solving for ePotential, Initial residual = 1.80333e-07, Final residual = 1.75872e-10, No Iterations 2

Solving for ePotential in region rightDielectric
GAMG:  Solving for ePotential, Initial residual = 2.22714e-07, Final residual = 2.29394e-10, No Iterations 3

  -ePotential iteration (19/200)

Solving for ePotential in region leftFluid
GAMG:  Solving for ePotential, Initial residual = 9.54908e-08, Final residual = 9.30505e-11, No Iterations 2

Solving for ePotential in region rightDielectric
GAMG:  Solving for ePotential, Initial residual = 1.17933e-07, Final residual = 7.64772e-10, No Iterations 2

  -ePotential iteration (20/200)

Solving for ePotential in region leftFluid
GAMG:  Solving for ePotential, Initial residual = 5.05243e-08, Final residual = 6.26183e-10, No Iterations 1

Solving for ePotential in region rightDielectric
GAMG:  Solving for ePotential, Initial residual = 6.29673e-08, Final residual = 4.25016e-10, No Iterations 2

  -ePotential iteration (21/200)

Solving for ePotential in region leftFluid
GAMG:  Solving for ePotential, Initial residual = 2.73871e-08, Final residual = 3.89396e-10, No Iterations 1

Solving for ePotential in region rightDielectric
GAMG:  Solving for ePotential, Initial residual = 3.33407e-08, Final residual = 2.25734e-10, No Iterations 2

  -ePotential iteration (22/200)

Solving for ePotential in region leftFluid
GAMG:  Solving for ePotential, Initial residual = 1.45515e-08, Final residual = 2.13866e-10, No Iterations 1

Solving for ePotential in region rightDielectric
GAMG:  Solving for ePotential, Initial residual = 1.76362e-08, Final residual = 7.17681e-10, No Iterations 1

  -ePotential iteration (23/200)

Solving for ePotential in region leftFluid
GAMG:  Solving for ePotential, Initial residual = 7.67365e-09, Final residual = 1.16769e-10, No Iterations 1

Solving for ePotential in region rightDielectric
GAMG:  Solving for ePotential, Initial residual = 9.85235e-09, Final residual = 4.52244e-10, No Iterations 1

  -ePotential iteration (24/200)

Solving for ePotential in region leftFluid
GAMG:  Solving for ePotential, Initial residual = 4.07682e-09, Final residual = 6.13788e-11, No Iterations 1

Solving for ePotential in region rightDielectric
GAMG:  Solving for ePotential, Initial residual = 5.26983e-09, Final residual = 2.59215e-10, No Iterations 1

  -ePotential iteration (25/200)

Solving for ePotential in region leftFluid
GAMG:  Solving for ePotential, Initial residual = 2.16338e-09, Final residual = 3.16314e-11, No Iterations 1

Solving for ePotential in region rightDielectric
GAMG:  Solving for ePotential, Initial residual = 2.8082e-09, Final residual = 1.44566e-10, No Iterations 1

  -ePotential iteration (26/200)

Solving for ePotential in region leftFluid
GAMG:  Solving for ePotential, Initial residual = 1.14734e-09, Final residual = 1.62356e-11, No Iterations 1

Solving for ePotential in region rightDielectric
GAMG:  Solving for ePotential, Initial residual = 1.49443e-09, Final residual = 7.95871e-11, No Iterations 1

  -ePotential iteration (27/200)

Solving for ePotential in region leftFluid
GAMG:  Solving for ePotential, Initial residual = 6.0836e-10, Final residual = 6.0836e-10, No Iterations 0

Solving for ePotential in region rightDielectric
GAMG:  Solving for ePotential, Initial residual = 7.95871e-11, Final residual = 7.95871e-11, No Iterations 0

>>> ePotential converged in 27 iterations.
ExecutionTime = 0.06 s  ClockTime = 0 s

Time = 9

Solving for ePotential in non-coupled regions (segregate)

  -ePotential iteration (1/200)

Solving for ePotential in region leftFluid
GAMG:  Solving for ePotential, Initial residual = 0.0743802, Final residual = 1.20223e-10, No Iterations 8

Solving for ePotential in region rightDielectric
GAMG:  Solving for ePotential, Initial residual = 0.0109091, Final residual = 9.02653e-10, No Iterations 8

  -ePotential iteration (2/200)

Solving for ePotential in region leftFluid
GAMG:  Solving for ePotential, Initial residual = 0.00413793, Final residual = 6.86123e-10, No Iterations 6

Solving for ePotential in region rightDielectric
GAMG:  Solving for ePotential, Initial residual = 0.00548446, Final residual = 4.53802e-10, No Iterations 8

  -ePotential iteration (3/200)

Solving for ePotential in region leftFluid
GAMG:  Solving for ePotential, Initial residual = 0.00220642, Final residual = 3.65856e-10, No Iterations 6

Solving for ePotential in region rightDielectric
GAMG:  Solving for ePotential, Initial residual = 0.00282811, Final residual = 2.34007e-10, No Iterations 8

  -ePotential iteration (4/200)

Solving for ePotential in region leftFluid
GAMG:  Solving for ePotential, Initial residual = 0.00117257, Final residual = 1.94429e-10, No Iterations 6

Solving for ePotential in region rightDielectric
GAMG:  Solving for ePotential, Initial residual = 0.00147693, Final residual = 7.84241e-10, No Iterations 7

  -ePotential iteration (5/200)

Solving for ePotential in region leftFluid
GAMG:  Solving for ePotential, Initial residual = 0.000622031, Final residual = 8.86475e-10, No Iterations 5

Solving for ePotential in region rightDielectric
GAMG:  Solving for ePotential, Initial residual = 0.000776327, Final residual = 4.12228e-10, No Iterations 7

  -ePotential iteration (6/200)

Solving for ePotential in region leftFluid
GAMG:  Solving for ePotential, Initial residual = 0.000329665, Final residual = 4.69832e-10, No Iterations 5

Solving for ePotential in region rightDielectric
GAMG:  Solving for ePotential, Initial residual = 0.000409451, Final residual = 2.17417e-10, No Iterations 7

  -ePotential iteration (7/200)

Solving for ePotential in region leftFluid
GAMG:  Solving for ePotential, Initial residual = 0.000174628, Final residual = 2.48877e-10, No Iterations 5

Solving for ePotential in region rightDielectric
GAMG:  Solving for ePotential, Initial residual = 0.000216337, Final residual = 7.44895e-10, No Iterations 6

  -ePotential iteration (8/200)

Solving for ePotential in region leftFluid
GAMG:  Solving for ePotential, Initial residual = 9.2478e-05, Final residual = 1.31799e-10, No Iterations 5

Solving for ePotential in region rightDielectric
GAMG:  Solving for ePotential, Initial residual = 0.000114412, Final residual = 3.93949e-10, No Iterations 6

  -ePotential iteration (9/200)

Solving for ePotential in region leftFluid
GAMG:  Solving for ePotential, Initial residual = 4.89668e-05, Final residual = 5.96734e-10, No Iterations 4

Solving for ePotential in region rightDielectric
GAMG:  Solving for ePotential, Initial residual = 6.05372e-05, Final residual = 2.08447e-10, No Iterations 6

  -ePotential iteration (10/200)

Solving for ePotential in region leftFluid
GAMG:  Solving for ePotential, Initial residual = 2.59263e-05, Final residual = 3.16053e-10, No Iterations 4

Solving for ePotential in region rightDielectric
GAMG:  Solving for ePotential, Initial residual = 3.20397e-05, Final residual = 7.28487e-10, No Iterations 5

  -ePotential iteration (11/200)

Solving for ePotential in region leftFluid
GAMG:  Solving for ePotential, Initial residual = 1.37262e-05, Final residual = 1.67338e-10, No Iterations 4

Solving for ePotential in region rightDielectric
GAMG:  Solving for ePotential, Initial residual = 1.696e-05, Final residual = 3.85657e-10, No Iterations 5

  -ePotential iteration (12/200)

Solving for ePotential in region leftFluid
GAMG:  Solving for ePotential, Initial residual = 7.26705e-06, Final residual = 7.63365e-10, No Iterations 3

Solving for ePotential in region rightDielectric
GAMG:  Solving for ePotential, Initial residual = 8.97812e-06, Final residual = 2.04172e-10, No Iterations 5

  -ePotential iteration (13/200)

Solving for ePotential in region leftFluid
GAMG:  Solving for ePotential, Initial residual = 3.84797e-06, Final residual = 4.05424e-10, No Iterations 3

Solving for ePotential in region rightDielectric
GAMG:  Solving for ePotential, Initial residual = 4.75294e-06, Final residual = 7.18395e-10, No Iterations 4

  -ePotential iteration (14/200)

Solving for ePotential in region leftFluid
GAMG:  Solving for ePotential, Initial residual = 2.03712e-06, Final residual = 2.14719e-10, No Iterations 3

Solving for ePotential in region rightDielectric
GAMG:  Solving for ePotential, Initial residual = 2.51662e-06, Final residual = 3.8063e-10, No Iterations 4

  -ePotential iteration (15/200)

Solving for ePotential in region leftFluid
GAMG:  Solving for ePotential, Initial residual = 1.07852e-06, Final residual = 1.13645e-10, No Iterations 3

Solving for ePotential in region rightDielectric
GAMG:  Solving for ePotential, Initial residual = 1.33236e-06, Final residual = 2.01546e-10, No Iterations 4

  -ePotential iteration (16/200)

Solving for ePotential in region leftFluid
GAMG:  Solving for ePotential, Initial residual = 5.71002e-07, Final residual = 5.41883e-10, No Iterations 2

Solving for ePotential in region rightDielectric
GAMG:  Solving for ePotential, Initial residual = 7.05424e-07, Final residual = 7.22964e-10, No Iterations 3

  -ePotential iteration (17/200)

Solving for ePotential in region leftFluid
GAMG:  Solving for ePotential, Initial residual = 3.02702e-07, Final residual = 2.95331e-10, No Iterations 2

Solving for ePotential in region rightDielectric
GAMG:  Solving for ePotential, Initial residual = 3.73858e-07, Final residual = 3.84773e-10, No Iterations 3

  -ePotential iteration (18/200)

Solving for ePotential in region leftFluid
GAMG:  Solving for ePotential, Initial residual = 1.60296e-07, Final residual = 1.56331e-10, No Iterations 2

Solving for ePotential in region rightDielectric
GAMG:  Solving for ePotential, Initial residual = 1.97968e-07, Final residual = 2.03906e-10, No Iterations 3

  -ePotential iteration (19/200)

Solving for ePotential in region leftFluid
GAMG:  Solving for ePotential, Initial residual = 8.48807e-08, Final residual = 8.27116e-11, No Iterations 2

Solving for ePotential in region rightDielectric
GAMG:  Solving for ePotential, Initial residual = 1.04829e-07, Final residual = 6.79797e-10, No Iterations 2

  -ePotential iteration (20/200)

Solving for ePotential in region leftFluid
GAMG:  Solving for ePotential, Initial residual = 4.49105e-08, Final residual = 5.56607e-10, No Iterations 1

Solving for ePotential in region rightDielectric
GAMG:  Solving for ePotential, Initial residual = 5.59709e-08, Final residual = 3.77792e-10, No Iterations 2

  -ePotential iteration (21/200)

Solving for ePotential in region leftFluid
GAMG:  Solving for ePotential, Initial residual = 2.43441e-08, Final residual = 3.46129e-10, No Iterations 1

Solving for ePotential in region rightDielectric
GAMG:  Solving for ePotential, Initial residual = 2.96362e-08, Final residual = 2.00652e-10, No Iterations 2

  -ePotential iteration (22/200)

Solving for ePotential in region leftFluid
GAMG:  Solving for ePotential, Initial residual = 1.29347e-08, Final residual = 1.90103e-10, No Iterations 1

Solving for ePotential in region rightDielectric
GAMG:  Solving for ePotential, Initial residual = 1.56766e-08, Final residual = 6.37939e-10, No Iterations 1

  -ePotential iteration (23/200)

Solving for ePotential in region leftFluid
GAMG:  Solving for ePotential, Initial residual = 6.82102e-09, Final residual = 1.03794e-10, No Iterations 1

Solving for ePotential in region rightDielectric
GAMG:  Solving for ePotential, Initial residual = 8.75765e-09, Final residual = 4.01995e-10, No Iterations 1

  -ePotential iteration (24/200)

Solving for ePotential in region leftFluid
GAMG:  Solving for ePotential, Initial residual = 3.62384e-09, Final residual = 5.45588e-11, No Iterations 1

Solving for ePotential in region rightDielectric
GAMG:  Solving for ePotential, Initial residual = 4.68429e-09, Final residual = 2.30414e-10, No Iterations 1

  -ePotential iteration (25/200)

Solving for ePotential in region leftFluid
GAMG:  Solving for ePotential, Initial residual = 1.92301e-09, Final residual = 2.81168e-11, No Iterations 1

Solving for ePotential in region rightDielectric
GAMG:  Solving for ePotential, Initial residual = 2.49618e-09, Final residual = 1.28503e-10, No Iterations 1

  -ePotential iteration (26/200)

Solving for ePotential in region leftFluid
GAMG:  Solving for ePotential, Initial residual = 1.01986e-09, Final residual = 1.44317e-11, No Iterations 1

Solving for ePotential in region rightDielectric
GAMG:  Solving for ePotential, Initial residual = 1.32838e-09, Final residual = 7.07441e-11, No Iterations 1

  -ePotential iteration (27/200)

Solving for ePotential in region leftFluid
GAMG:  Solving for ePotential, Initial residual = 5.40764e-10, Final residual = 5.40764e-10, No Iterations 0

Solving for ePotential in region rightDielectric
GAMG:  Solving for ePotential, Initial residual = 7.07441e-11, Final residual = 7.07441e-11, No Iterations 0

>>> ePotential converged in 27 iterations.
ExecutionTime = 0.06 s  ClockTime = 0 s

Time = 10

Solving for ePotential in non-coupled regions (segregate)

  -ePotential iteration (1/200)

Solving for ePotential in region leftFluid
GAMG:  Solving for ePotential, Initial residual = 0.0666667, Final residual = 9.39193e-10, No Iterations 7

Solving for ePotential in region rightDielectric
GAMG:  Solving for ePotential, Initial residual = 0.00970874, Final residual = 8.03332e-10, No Iterations 8

  -ePotential iteration (2/200)

Solving for ePotential in region leftFluid
GAMG:  Solving for ePotential, Initial residual = 0.0037298, Final residual = 6.18447e-10, No Iterations 6

Solving for ePotential in region rightDielectric
GAMG:  Solving for ePotential, Initial residual = 0.0049082, Final residual = 4.0612e-10, No Iterations 8

  -ePotential iteration (3/200)

Solving for ePotential in region leftFluid
GAMG:  Solving for ePotential, Initial residual = 0.00198739, Final residual = 3.29537e-10, No Iterations 6

Solving for ePotential in region rightDielectric
GAMG:  Solving for ePotential, Initial residual = 0.00253789, Final residual = 2.09993e-10, No Iterations 8

  -ePotential iteration (4/200)

Solving for ePotential in region leftFluid
GAMG:  Solving for ePotential, Initial residual = 0.00105577, Final residual = 1.75061e-10, No Iterations 6

Solving for ePotential in region rightDielectric
GAMG:  Solving for ePotential, Initial residual = 0.00132721, Final residual = 7.04742e-10, No Iterations 7

  -ePotential iteration (5/200)

Solving for ePotential in region leftFluid
GAMG:  Solving for ePotential, Initial residual = 0.000559956, Final residual = 7.9801e-10, No Iterations 5

Solving for ePotential in region rightDielectric
GAMG:  Solving for ePotential, Initial residual = 0.000698134, Final residual = 3.70707e-10, No Iterations 7

  -ePotential iteration (6/200)

Solving for ePotential in region leftFluid
GAMG:  Solving for ePotential, Initial residual = 0.000296735, Final residual = 4.229e-10, No Iterations 5

Solving for ePotential in region rightDielectric
GAMG:  Solving for ePotential, Initial residual = 0.00036835, Final residual = 1.95593e-10, No Iterations 7

  -ePotential iteration (7/200)

Solving for ePotential in region leftFluid
GAMG:  Solving for ePotential, Initial residual = 0.000157175, Final residual = 2.24003e-10, No Iterations 5

Solving for ePotential in region rightDielectric
GAMG:  Solving for ePotential, Initial residual = 0.00019466, Final residual = 6.70256e-10, No Iterations 6

  -ePotential iteration (8/200)

Solving for ePotential in region leftFluid
GAMG:  Solving for ePotential, Initial residual = 8.3233e-05, Final residual = 1.18623e-10, No Iterations 5

Solving for ePotential in region rightDielectric
GAMG:  Solving for ePotential, Initial residual = 0.000102958, Final residual = 3.54512e-10, No Iterations 6

  -ePotential iteration (9/200)

Solving for ePotential in region leftFluid
GAMG:  Solving for ePotential, Initial residual = 4.40709e-05, Final residual = 5.3707e-10, No Iterations 4

Solving for ePotential in region rightDielectric
GAMG:  Solving for ePotential, Initial residual = 5.44801e-05, Final residual = 1.87591e-10, No Iterations 6

  -ePotential iteration (10/200)

Solving for ePotential in region leftFluid
GAMG:  Solving for ePotential, Initial residual = 2.33339e-05, Final residual = 2.84451e-10, No Iterations 4

Solving for ePotential in region rightDielectric
GAMG:  Solving for ePotential, Initial residual = 2.88348e-05, Final residual = 6.55617e-10, No Iterations 5

  -ePotential iteration (11/200)

Solving for ePotential in region leftFluid
GAMG:  Solving for ePotential, Initial residual = 1.23537e-05, Final residual = 1.50605e-10, No Iterations 4

Solving for ePotential in region rightDielectric
GAMG:  Solving for ePotential, Initial residual = 1.52637e-05, Final residual = 3.47085e-10, No Iterations 5

  -ePotential iteration (12/200)

Solving for ePotential in region leftFluid
GAMG:  Solving for ePotential, Initial residual = 6.54036e-06, Final residual = 6.8703e-10, No Iterations 3

Solving for ePotential in region rightDielectric
GAMG:  Solving for ePotential, Initial residual = 8.08023e-06, Final residual = 1.83753e-10, No Iterations 5

  -ePotential iteration (13/200)

Solving for ePotential in region leftFluid
GAMG:  Solving for ePotential, Initial residual = 3.46318e-06, Final residual = 3.64882e-10, No Iterations 3

Solving for ePotential in region rightDielectric
GAMG:  Solving for ePotential, Initial residual = 4.27763e-06, Final residual = 6.46552e-10, No Iterations 4

  -ePotential iteration (14/200)

Solving for ePotential in region leftFluid
GAMG:  Solving for ePotential, Initial residual = 1.83341e-06, Final residual = 1.93247e-10, No Iterations 3

Solving for ePotential in region rightDielectric
GAMG:  Solving for ePotential, Initial residual = 2.26496e-06, Final residual = 3.42566e-10, No Iterations 4

  -ePotential iteration (15/200)

Solving for ePotential in region leftFluid
GAMG:  Solving for ePotential, Initial residual = 9.70667e-07, Final residual = 9.21353e-10, No Iterations 2

Solving for ePotential in region rightDielectric
GAMG:  Solving for ePotential, Initial residual = 1.19918e-06, Final residual = 1.81513e-10, No Iterations 4

  -ePotential iteration (16/200)

Solving for ePotential in region leftFluid
GAMG:  Solving for ePotential, Initial residual = 5.14701e-07, Final residual = 5.01257e-10, No Iterations 2

Solving for ePotential in region rightDielectric
GAMG:  Solving for ePotential, Initial residual = 6.34853e-07, Final residual = 6.50168e-10, No Iterations 3

  -ePotential iteration (17/200)

Solving for ePotential in region leftFluid
GAMG:  Solving for ePotential, Initial residual = 2.72433e-07, Final residual = 2.66342e-10, No Iterations 2

Solving for ePotential in region rightDielectric
GAMG:  Solving for ePotential, Initial residual = 3.36458e-07, Final residual = 3.461e-10, No Iterations 3

  -ePotential iteration (18/200)

Solving for ePotential in region leftFluid
GAMG:  Solving for ePotential, Initial residual = 1.44261e-07, Final residual = 1.40809e-10, No Iterations 2

Solving for ePotential in region rightDielectric
GAMG:  Solving for ePotential, Initial residual = 1.78164e-07, Final residual = 1.83441e-10, No Iterations 3

  -ePotential iteration (19/200)

Solving for ePotential in region leftFluid
GAMG:  Solving for ePotential, Initial residual = 7.63894e-08, Final residual = 9.42128e-10, No Iterations 1

Solving for ePotential in region rightDielectric
GAMG:  Solving for ePotential, Initial residual = 9.45105e-08, Final residual = 6.1705e-10, No Iterations 2

  -ePotential iteration (20/200)

Solving for ePotential in region leftFluid
GAMG:  Solving for ePotential, Initial residual = 4.13452e-08, Final residual = 5.90469e-10, No Iterations 1

Solving for ePotential in region rightDielectric
GAMG:  Solving for ePotential, Initial residual = 5.03162e-08, Final residual = 3.37438e-10, No Iterations 2

  -ePotential iteration (21/200)

Solving for ePotential in region leftFluid
GAMG:  Solving for ePotential, Initial residual = 2.19686e-08, Final residual = 3.24734e-10, No Iterations 1

Solving for ePotential in region rightDielectric
GAMG:  Solving for ePotential, Initial residual = 2.66207e-08, Final residual = 1.78959e-10, No Iterations 2

  -ePotential iteration (22/200)

Solving for ePotential in region leftFluid
GAMG:  Solving for ePotential, Initial residual = 1.16321e-08, Final residual = 1.73432e-10, No Iterations 1

Solving for ePotential in region rightDielectric
GAMG:  Solving for ePotential, Initial residual = 1.40792e-08, Final residual = 5.70045e-10, No Iterations 1

  -ePotential iteration (23/200)

Solving for ePotential in region leftFluid
GAMG:  Solving for ePotential, Initial residual = 6.12867e-09, Final residual = 9.38888e-11, No Iterations 1

Solving for ePotential in region rightDielectric
GAMG:  Solving for ePotential, Initial residual = 7.8637e-09, Final residual = 3.59513e-10, No Iterations 1

  -ePotential iteration (24/200)

Solving for ePotential in region leftFluid
GAMG:  Solving for ePotential, Initial residual = 3.25524e-09, Final residual = 4.92163e-11, No Iterations 1

Solving for ePotential in region rightDielectric
GAMG:  Solving for ePotential, Initial residual = 4.20616e-09, Final residual = 2.06231e-10, No Iterations 1

  -ePotential iteration (25/200)

Solving for ePotential in region leftFluid
GAMG:  Solving for ePotential, Initial residual = 1.72728e-09, Final residual = 2.53341e-11, No Iterations 1

Solving for ePotential in region rightDielectric
GAMG:  Solving for ePotential, Initial residual = 2.24145e-09, Final residual = 1.15101e-10, No Iterations 1

  -ePotential iteration (26/200)

Solving for ePotential in region leftFluid
GAMG:  Solving for ePotential, Initial residual = 9.16037e-10, Final residual = 9.16037e-10, No Iterations 0

Solving for ePotential in region rightDielectric
GAMG:  Solving for ePotential, Initial residual = 1.15101e-10, Final residual = 1.15101e-10, No Iterations 0

>>> ePotential converged in 26 iterations.
ExecutionTime = 0.07 s  ClockTime = 0 s

End

